                                  MODFLOW-2005     
      U.S. GEOLOGICAL SURVEY MODULAR FINITE-DIFFERENCE GROUND-WATER FLOW MODEL
                            VERSION 1.11.00 8/8/2013

 LIST FILE: supply2.lst
                         UNIT   10

 OPENING ..\data\supply.dis
 FILE TYPE:DIS   UNIT   11   STATUS:OLD    
 FORMAT:FORMATTED              ACCESS:SEQUENTIAL          

 OPENING ..\data\supply.ba6
 FILE TYPE:BAS6   UNIT   12   STATUS:OLD    
 FORMAT:FORMATTED              ACCESS:SEQUENTIAL          

 OPENING ..\data\supply.bc6
 FILE TYPE:BCF6   UNIT   13   STATUS:OLD    
 FORMAT:FORMATTED              ACCESS:SEQUENTIAL          

 OPENING ..\data\supply.rch
 FILE TYPE:RCH   UNIT   15   STATUS:OLD    
 FORMAT:FORMATTED              ACCESS:SEQUENTIAL          

 OPENING ..\data\supply2.sfr
 FILE TYPE:SFR   UNIT   16   STATUS:OLD    
 FORMAT:FORMATTED              ACCESS:SEQUENTIAL          

 OPENING ..\data\supply.oc
 FILE TYPE:OC   UNIT   17   STATUS:OLD    
 FORMAT:FORMATTED              ACCESS:SEQUENTIAL          

 OPENING ..\data\supply.pcg
 FILE TYPE:PCG   UNIT   18   STATUS:OLD    
 FORMAT:FORMATTED              ACCESS:SEQUENTIAL          

 OPENING supply2.wel
 FILE TYPE:WEL   UNIT   19   STATUS:OLD    
 FORMAT:FORMATTED              ACCESS:SEQUENTIAL          

 OPENING supply2sf.bin
 FILE TYPE:DATA(BINARY)   UNIT   50   STATUS:UNKNOWN
 FORMAT:BINARY                 ACCESS:SEQUENTIAL          

 OPENING supply2hd.bin
 FILE TYPE:DATA(BINARY)   UNIT   51   STATUS:UNKNOWN
 FORMAT:BINARY                 ACCESS:SEQUENTIAL          

 BAS -- BASIC PACKAGE, VERSION 7, 5/2/2005 INPUT READ FROM UNIT   12
 
 MODFLOW was compiled using uniform precision
 Precision of REAL and DOUBLE PRECISION variables:          15

 DISCRETIZATION INPUT DATA READ FROM UNIT   11
    1 LAYERS        25 ROWS        30 COLUMNS
   12 STRESS PERIOD(S) IN SIMULATION
 MODEL TIME UNIT IS DAYS
 MODEL LENGTH UNIT IS UNDEFINED
  Confining bed flag for each layer:
   0

                     DELR =   200.000    

                     DELC =   200.000    

 TOP ELEVATION OF LAYER 1 =  100.0000    

   MODEL LAYER BOTTOM EL. =   0.00000     FOR LAYER   1


 STRESS PERIOD     LENGTH       TIME STEPS     MULTIPLIER FOR DELT    SS FLAG
 ----------------------------------------------------------------------------
        1         92.00000          1                    1.500         TR
        2         91.00000          1                    1.500         TR
        3         91.00000          1                    1.500         TR
        4         91.00000          1                    1.500         TR
        5         92.00000          1                    1.500         TR
        6         91.00000          1                    1.500         TR
        7         91.00000          1                    1.500         TR
        8         91.00000          1                    1.500         TR
        9         92.00000          1                    1.500         TR
       10         91.00000          1                    1.500         TR
       11         91.00000          1                    1.500         TR
       12         91.00000          1                    1.500         TR

 TRANSIENT SIMULATION



 
 #MODOFC transient water supply sample problem                                   
 #                                                                               
 THE FREE FORMAT OPTION HAS BEEN SELECTED



                     BOUNDARY ARRAY FOR LAYER   1
 READING ON UNIT   12 WITH FORMAT: (20I4)              

 AQUIFER HEAD WILL BE SET TO   0.0000     AT ALL NO-FLOW NODES (IBOUND=0).



                       INITIAL HEAD FOR LAYER   1
 READING ON UNIT   12 WITH FORMAT: (10F13.0)           

 OUTPUT CONTROL IS SPECIFIED ONLY AT TIME STEPS FOR WHICH OUTPUT IS DESIRED
 COMPACT CELL-BY-CELL BUDGET FILES WILL BE WRITTEN
 HEAD PRINT FORMAT CODE IS  18    DRAWDOWN PRINT FORMAT CODE IS   0
 HEADS WILL BE SAVED ON UNIT   51    DRAWDOWNS WILL BE SAVED ON UNIT    0

 BCF -- BLOCK-CENTERED FLOW PACKAGE, VERSION 7, 5/2/2005
         INPUT READ FROM UNIT 13
 TRANSIENT SIMULATION
 HEAD AT CELLS THAT CONVERT TO DRY=   0.0000    
 WETTING CAPABILITY IS NOT ACTIVE
      LAYER  LAYER-TYPE CODE     INTERBLOCK T
      --------------------------------------------
         1            0          0 -- HARMONIC    

 COLUMN TO ROW ANISOTROPY =  1.000000    

     PRIMARY STORAGE COEF =  5.000000E-02 FOR LAYER   1

     TRANSMIS. ALONG ROWS =   5000.00     FOR LAYER   1

 WEL -- WELL PACKAGE, VERSION 7, 5/2/2005 INPUT READ FROM UNIT   19
 # Well package input file written by MMProc
 No named parameters
 MAXIMUM OF      5 ACTIVE WELLS AT ONE TIME


     0 Well parameters

 RCH -- RECHARGE PACKAGE, VERSION 7, 5/2/2005 INPUT READ FROM UNIT   15
 No named parameters
 OPTION 1 -- RECHARGE TO TOP LAYER


     0 Recharge parameters

 SFR7 -- STREAMFLOW ROUTING PACKAGE, VERSION 1.0.7, 2013-01-15
         INPUT READ FROM UNIT  16
 #  Supply2 test problem for GWM-VI
 #  The eighth entry in the first data line is ISTCB2 -
 #    Setting this to a negative number indicates that
 #    streamflows out of the reach will be saved to a
 #    binary file.  The absolute value of ISTCB2 is the
 #    unit to which unformatted flows will be written.
 #
 No named parameters
 Segment information will not be 
 read by reach
 No named parameters
 No specifed inflow files


 NUMBER OF STREAM REACHES IS   40

 NUMBER OF STREAM SEGMENTS IS    3

 NUMBER OF STREAM PARAMETERS IS    0

 NUMBER OF STREAM SEGMENTS DEFINED USING PARAMETERS IS              0

 MAXIMUM ERROR FOR STREAM LEAKAGE RATES IS  1.00E-04

 CONSTANT FOR MANNINGS EQUATION IS  1.2839E+05





   STREAM NETWORK DESCRIPTION: 

   LAYER    ROW    COL   SEGMENT   REACH     LENGTH
                          NUMBER   NUMBER    IN CELL        
   --------------------------------------------------
      1     13      1       1        1    2.0000E+02
      1     13      2       1        2    2.0000E+02
      1     14      3       1        3    2.0000E+02
      1     15      4       1        4    2.0000E+02
      1     16      5       1        5    2.0000E+02
      1     16      6       1        6    2.0000E+02
      1     16      7       1        7    2.0000E+02
      1     16      8       1        8    2.0000E+02
      1     16      9       1        9    2.0000E+02
      1     16     10       1       10    2.0000E+02
      1     16     11       1       11    2.0000E+02
      1     16     12       1       12    2.0000E+02
      1     15     13       1       13    2.0000E+02
      1     14     14       1       14    2.0000E+02
      1     13     15       1       15    2.0000E+02
      1     12     16       1       16    2.0000E+02
      1     12     17       1       17    2.0000E+02
      1     12     18       1       18    2.0000E+02
      1     12     19       1       19    2.0000E+02
      1     13     20       1       20    2.0000E+02
      1     14     21       1       21    2.0000E+02
      1     14     22       1       22    2.0000E+02
      1      9     30       2        1    2.0000E+02
      1      9     29       2        2    2.0000E+02
      1      9     28       2        3    2.0000E+02
      1      9     27       2        4    2.0000E+02
      1     10     26       2        5    2.0000E+02
      1     11     25       2        6    2.0000E+02
      1     12     24       2        7    2.0000E+02
      1     13     23       2        8    2.0000E+02
      1     14     22       2        9    2.0000E+02
      1     14     22       3        1    2.0000E+02
      1     15     23       3        2    2.0000E+02
      1     15     24       3        3    2.0000E+02
      1     15     25       3        4    2.0000E+02
      1     15     26       3        5    2.0000E+02
      1     16     27       3        6    2.0000E+02
      1     17     28       3        7    2.0000E+02
      1     18     29       3        8    2.0000E+02
      1     18     30       3        9    2.0000E+02




 PCG -- CONJUGATE-GRADIENT SOLUTION PACKAGE, VERSION 7, 5/2/2005
 MAXIMUM OF    500 CALLS OF SOLUTION ROUTINE
 MAXIMUM OF      5 INTERNAL ITERATIONS PER CALL TO SOLUTION ROUTINE
 MATRIX PRECONDITIONING TYPE :    1



                                    SOLUTION BY THE CONJUGATE-GRADIENT METHOD
                                   -------------------------------------------
                    MAXIMUM NUMBER OF CALLS TO PCG ROUTINE =      500
                        MAXIMUM ITERATIONS PER CALL TO PCG =        5
                               MATRIX PRECONDITIONING TYPE =        1
        RELAXATION FACTOR (ONLY USED WITH PRECOND. TYPE 1) =    0.10000E+01
 PARAMETER OF POLYNOMIAL PRECOND. = 2 (2) OR IS CALCULATED :        0
                         HEAD CHANGE CRITERION FOR CLOSURE =    0.10000E-05
                     RESIDUAL CHANGE CRITERION FOR CLOSURE =    0.10000E+01
            PCG HEAD AND RESIDUAL CHANGE PRINTOUT INTERVAL =        1
     PRINTING FROM SOLVER IS LIMITED(1) OR SUPPRESSED (>1) =        1
                            STEADY-STATE DAMPING PARAMETER =    0.10000E+01
                               TRANSIENT DAMPING PARAMETER =    0.10000E+01
1
                            STRESS PERIOD NO.    1, LENGTH =   92.00000    
                            -----------------------------------------------

                              NUMBER OF TIME STEPS =     1

                               MULTIPLIER FOR DELT =     1.500

                            INITIAL TIME STEP SIZE =   92.00000    

 WELL NO.  LAYER   ROW   COL   STRESS RATE         
 --------------------------------------------------
      1      1     19     16     -0.2814E+05
      2      1      7     26     -0.5000E+05
      3      1     22     20     -0.5000E+05

      3 WELLS

                 RECHARGE =  5.000000E-04



 CLASSIFICATION & COUNT OF STREAM SEGMENTS BASED ON SOURCE OF INFLOW:

                HEADWATER     DIVERSION     RECEIVES TRIBUTARY FLOW
                ---------     ---------     -----------------------
                     2              0               1



                    INPUT DATA FOR EACH STREAM SEGMENT
 ---------------------------------------------------------------------------------------------

 SEGMENT    SEG.     INFLOW   OVERLAND   STREAM    STREAM   ICALC  OUTFLOW  DIVERSION PRIORITY
    NO.    LENGTH     RATE     RUNOFF      ET       PPT.    METH.  TO SEG.  FROM SEG.    NO.

      1  4.400E+03 1.000E+05 0.000E+00 0.000E+00 0.000E+00    1        3        0        0
      2  1.800E+03 5.000E+04 0.000E+00 0.000E+00 0.000E+00    1        3        0        0
      3  1.800E+03 0.000E+00 0.000E+00 0.000E+00 0.000E+00    1        0        0        0


         STREAMBED PROPERTIES AND STREAM DIMENSIONS

 SEGMENT     BED HYD. COND.      BED THICKNESS     ELEV.-TOP OF BED     WIDTH OF STREAM     DEPTH OF STREAM    STREAM ROUGHNESS
    No.     UPPER     LOWER     UPPER     LOWER     UPPER     LOWER     UPPER     LOWER     UPPER     LOWER   CHANNEL      BANK

     1  5.000E+00 5.000E+00 1.000E+00 1.000E+00 4.850E+01 3.800E+01 2.000E+01 2.000E+01                     5.000E-02
     2  5.000E+00 5.000E+00 1.000E+00 1.000E+00 4.025E+01 3.800E+01 2.000E+01 2.000E+01                     5.000E-02
     3  5.000E+00 5.000E+00 1.000E+00 1.000E+00 3.800E+01 3.000E+01 2.000E+01 2.000E+01                     5.000E-02



 
 SOLVING FOR HEAD 


     8 CALLS TO PCG ROUTINE FOR TIME STEP   1 IN STRESS PERIOD    1
    32 TOTAL ITERATIONS

 OUTPUT CONTROL FOR STRESS PERIOD    1   TIME STEP    1
    SAVE BUDGET
    SAVE HEAD FOR ALL LAYERS
    PRINT HEAD FOR ALL LAYERS
 UBDSV2 SAVING "STREAMFLOW OUT  " ON UNIT  50 AT TIME STEP  1, STRESS PERIOD   1



 STREAM LISTING     PERIOD      1   STEP        1

 LAYER ROW COL. STREAM  RCH.  FLOW INTO     FLOW TO   FLOW OUT OF   OVRLND.     DIRECT     STREAM       STREAM     STREAM     STREAM   STREAMBED  STREAMBED
                SEG.NO.  NO.  STRM. RCH.    AQUIFER    STRM. RCH.    RUNOFF     PRECIP       ET          HEAD       DEPTH      WIDTH   CONDCTNC.   GRADIENT

   1   13    1     1     1    1.0000E+05 -3.1649E+04   1.3165E+05  0.000E+00  0.000E+00  0.000E+00  4.84193E+01  1.580E-01  2.000E+01  2.000E+04 -1.582E+00
   1   13    2     1     2    1.3165E+05 -4.2108E+04   1.7376E+05  0.000E+00  0.000E+00  0.000E+00  4.79706E+01  1.865E-01  2.000E+01  2.000E+04 -2.105E+00
   1   14    3     1     3    1.7376E+05 -3.7625E+04   2.1138E+05  0.000E+00  0.000E+00  0.000E+00  4.75211E+01  2.143E-01  2.000E+01  2.000E+04 -1.881E+00
   1   15    4     1     4    2.1138E+05 -3.6648E+04   2.4803E+05  0.000E+00  0.000E+00  0.000E+00  4.70678E+01  2.382E-01  2.000E+01  2.000E+04 -1.832E+00
   1   16    5     1     5    2.4803E+05 -3.7522E+04   2.8555E+05  0.000E+00  0.000E+00  0.000E+00  4.66129E+01  2.606E-01  2.000E+01  2.000E+04 -1.876E+00
   1   16    6     1     6    2.8555E+05 -3.2772E+04   3.1832E+05  0.000E+00  0.000E+00  0.000E+00  4.61557E+01  2.807E-01  2.000E+01  2.000E+04 -1.639E+00
   1   16    7     1     7    3.1832E+05 -3.2523E+04   3.5085E+05  0.000E+00  0.000E+00  0.000E+00  4.56963E+01  2.986E-01  2.000E+01  2.000E+04 -1.626E+00
   1   16    8     1     8    3.5085E+05 -3.2637E+04   3.8348E+05  0.000E+00  0.000E+00  0.000E+00  4.52361E+01  3.157E-01  2.000E+01  2.000E+04 -1.632E+00
   1   16    9     1     9    3.8348E+05 -3.2584E+04   4.1607E+05  0.000E+00  0.000E+00  0.000E+00  4.47754E+01  3.322E-01  2.000E+01  2.000E+04 -1.629E+00
   1   16   10     1    10    4.1607E+05 -3.2380E+04   4.4845E+05  0.000E+00  0.000E+00  0.000E+00  4.43141E+01  3.482E-01  2.000E+01  2.000E+04 -1.619E+00
   1   16   11     1    11    4.4845E+05 -3.2606E+04   4.8106E+05  0.000E+00  0.000E+00  0.000E+00  4.38523E+01  3.636E-01  2.000E+01  2.000E+04 -1.630E+00
   1   16   12     1    12    4.8106E+05 -3.7550E+04   5.1861E+05  0.000E+00  0.000E+00  0.000E+00  4.33912E+01  3.799E-01  2.000E+01  2.000E+04 -1.878E+00
   1   15   13     1    13    5.1861E+05 -3.6999E+04   5.5560E+05  0.000E+00  0.000E+00  0.000E+00  4.29307E+01  3.966E-01  2.000E+01  2.000E+04 -1.850E+00
   1   14   14     1    14    5.5560E+05 -3.8104E+04   5.9371E+05  0.000E+00  0.000E+00  0.000E+00  4.24698E+01  4.130E-01  2.000E+01  2.000E+04 -1.905E+00
   1   13   15     1    15    5.9371E+05 -4.0739E+04   6.3445E+05  0.000E+00  0.000E+00  0.000E+00  4.20093E+01  4.298E-01  2.000E+01  2.000E+04 -2.037E+00
   1   12   16     1    16    6.3445E+05 -4.7010E+04   6.8146E+05  0.000E+00  0.000E+00  0.000E+00  4.15502E+01  4.480E-01  2.000E+01  2.000E+04 -2.351E+00
   1   12   17     1    17    6.8146E+05 -3.6653E+04   7.1811E+05  0.000E+00  0.000E+00  0.000E+00  4.10898E+01  4.648E-01  2.000E+01  2.000E+04 -1.833E+00
   1   12   18     1    18    7.1811E+05 -3.4810E+04   7.5292E+05  0.000E+00  0.000E+00  0.000E+00  4.06267E+01  4.789E-01  2.000E+01  2.000E+04 -1.741E+00
   1   12   19     1    19    7.5292E+05 -3.9061E+04   7.9198E+05  0.000E+00  0.000E+00  0.000E+00  4.01637E+01  4.932E-01  2.000E+01  2.000E+04 -1.953E+00
   1   13   20     1    20    7.9198E+05 -2.8834E+04   8.2082E+05  0.000E+00  0.000E+00  0.000E+00  3.96993E+01  5.061E-01  2.000E+01  2.000E+04 -1.442E+00
   1   14   21     1    21    8.2082E+05 -2.0937E+04   8.4175E+05  0.000E+00  0.000E+00  0.000E+00  3.92313E+01  5.154E-01  2.000E+01  2.000E+04 -1.047E+00
   1   14   22     1    22    8.4175E+05 -2.2221E+03   8.4397E+05  0.000E+00  0.000E+00  0.000E+00  3.87584E+01  5.197E-01  2.000E+01  2.000E+04 -1.111E-01
   1    9   30     2     1    5.0000E+04 -2.7228E+04   7.7228E+04  0.000E+00  0.000E+00  0.000E+00  4.02589E+01  1.339E-01  2.000E+01  2.000E+04 -1.361E+00
   1    9   29     2     2    7.7228E+04 -2.9121E+04   1.0635E+05  0.000E+00  0.000E+00  0.000E+00  4.00418E+01  1.668E-01  2.000E+01  2.000E+04 -1.456E+00
   1    9   28     2     3    1.0635E+05 -3.2063E+04   1.3841E+05  0.000E+00  0.000E+00  0.000E+00  3.98232E+01  1.982E-01  2.000E+01  2.000E+04 -1.603E+00
   1    9   27     2     4    1.3841E+05 -4.3325E+04   1.8174E+05  0.000E+00  0.000E+00  0.000E+00  3.96079E+01  2.329E-01  2.000E+01  2.000E+04 -2.166E+00
   1   10   26     2     5    1.8174E+05 -3.2581E+04   2.1432E+05  0.000E+00  0.000E+00  0.000E+00  3.93896E+01  2.646E-01  2.000E+01  2.000E+04 -1.629E+00
   1   11   25     2     6    2.1432E+05 -2.6480E+04   2.4080E+05  0.000E+00  0.000E+00  0.000E+00  3.91626E+01  2.876E-01  2.000E+01  2.000E+04 -1.324E+00
   1   12   24     2     7    2.4080E+05 -2.0692E+04   2.6149E+05  0.000E+00  0.000E+00  0.000E+00  3.89302E+01  3.052E-01  2.000E+01  2.000E+04 -1.035E+00
   1   13   23     2     8    2.6149E+05 -1.5240E+04   2.7673E+05  0.000E+00  0.000E+00  0.000E+00  3.86931E+01  3.181E-01  2.000E+01  2.000E+04 -7.620E-01
   1   14   22     2     9    2.7673E+05 -8.3620E+03   2.8509E+05  0.000E+00  0.000E+00  0.000E+00  3.84514E+01  3.264E-01  2.000E+01  2.000E+04 -4.181E-01
   1   14   22     3     1    1.1291E+06 -1.5956E+04   1.1450E+06  0.000E+00  0.000E+00  0.000E+00  3.80717E+01  5.161E-01  2.000E+01  2.000E+04 -7.978E-01
   1   15   23     3     2    1.1450E+06 -2.4845E+04   1.1699E+06  0.000E+00  0.000E+00  0.000E+00  3.71883E+01  5.217E-01  2.000E+01  2.000E+04 -1.242E+00
   1   15   24     3     3    1.1699E+06 -2.1188E+04   1.1911E+06  0.000E+00  0.000E+00  0.000E+00  3.63057E+01  5.279E-01  2.000E+01  2.000E+04 -1.059E+00
   1   15   25     3     4    1.1911E+06 -2.1208E+04   1.2123E+06  0.000E+00  0.000E+00  0.000E+00  3.54224E+01  5.335E-01  2.000E+01  2.000E+04 -1.060E+00
   1   15   26     3     5    1.2123E+06 -2.4785E+04   1.2370E+06  0.000E+00  0.000E+00  0.000E+00  3.45396E+01  5.396E-01  2.000E+01  2.000E+04 -1.239E+00
   1   16   27     3     6    1.2370E+06 -3.2318E+04   1.2694E+06  0.000E+00  0.000E+00  0.000E+00  3.36583E+01  5.472E-01  2.000E+01  2.000E+04 -1.616E+00
   1   17   28     3     7    1.2694E+06 -3.9370E+04   1.3087E+06  0.000E+00  0.000E+00  0.000E+00  3.27787E+01  5.565E-01  2.000E+01  2.000E+04 -1.968E+00
   1   18   29     3     8    1.3087E+06 -4.9926E+04   1.3587E+06  0.000E+00  0.000E+00  0.000E+00  3.19013E+01  5.680E-01  2.000E+01  2.000E+04 -2.496E+00
   1   18   30     3     9    1.3587E+06 -4.6211E+04   1.4049E+06  0.000E+00  0.000E+00  0.000E+00  3.10246E+01  5.802E-01  2.000E+01  2.000E+04 -2.311E+00



1
              HEAD IN LAYER   1 AT END OF TIME STEP   1 IN STRESS PERIOD    1
  ---------------------------------------------------------------------------

          1      2      3      4      5      6      7      8      9     10
         11     12     13     14     15     16     17     18     19     20
         21     22     23     24     25     26     27     28     29     30
 .........................................................................
   1  ****** ****** ****** ****** ****** ****** ****** ****** ****** ******
      ****** ****** ****** ****** ****** ****** ****** ****** ****** ******
      ****** ****** ****** ****** ****** ****** ****** ****** ****** ******
   2  ****** ****** ****** ****** ****** ****** ****** ****** ****** ******
      ****** ****** ****** ****** ****** ****** ****** ****** ****** ******
      ****** ****** ****** ****** ****** ****** ****** ****** ****** ******
   3  ****** ****** ****** ****** ****** ****** ****** ****** ****** ******
      ****** ****** ****** ****** ****** ****** ****** ****** ****** ******
      ****** ****** ****** ****** ****** ****** ****** ****** ****** ******
   4  ****** ****** ****** ****** ****** ****** ****** ****** ****** ******
      ****** ****** ****** ****** ****** ****** ****** ****** ****** ******
      ****** ****** ****** ****** ****** ****** ****** ****** ****** ******
   5  ****** ****** ****** ****** ****** ****** ****** ****** ****** ******
      ****** ****** ****** ****** ****** ****** ****** ****** ****** ******
      ****** ****** ****** ****** ****** ****** ****** ****** ****** ******
   6  ****** ****** ****** ****** ****** ****** ****** ****** ****** ******
      ****** ****** ****** ****** ****** ****** ****** ****** ****** ******
      ****** ****** ****** ****** ****** ****** ****** ****** ****** ******
   7  ****** ****** ****** ****** ****** ****** ****** ****** ****** ******
      ****** ****** ****** ****** ****** ****** ****** ****** ****** ******
      ****** ****** ****** ****** ****** ****** ****** ****** ****** ******
   8  ****** ****** ****** ****** ****** ****** ****** ****** ****** ******
      ****** ****** ****** ****** ****** ****** ****** ****** ****** ******
      ****** ****** ****** ****** ****** ****** ****** ****** ****** ******
   9  ****** ****** ****** ****** ****** ****** ****** ****** ****** ******
      ****** ****** ****** ****** ****** ****** ****** ****** ****** ******
      ****** ****** ****** ****** ****** ****** ****** ****** ****** ******
  10  ****** ****** ****** ****** ****** ****** ****** ****** ****** ******
      ****** ****** ****** ****** ****** ****** ****** ****** ****** ******
      ****** ****** ****** ****** ****** ****** ****** ****** ****** ******
  11  ****** ****** ****** ****** ****** ****** ****** ****** ****** ******
      ****** ****** ****** ****** ****** ****** ****** ****** ****** ******
      ****** ****** ****** ****** ****** ****** ****** ****** ****** ******
  12  ****** ****** ****** ****** ****** ****** ****** ****** ****** ******
      ****** ****** ****** ****** ****** ****** ****** ****** ****** ******
      ****** ****** ****** ****** ****** ****** ****** ****** ****** ******
  13  ****** ****** ****** ****** ****** ****** ****** ****** ****** ******
      ****** ****** ****** ****** ****** ****** ****** ****** ****** ******
      ****** ****** ****** ****** ****** ****** ****** ****** ****** ******
  14  ****** ****** ****** ****** ****** ****** ****** ****** ****** ******
      ****** ****** ****** ****** ****** ****** ****** ****** ****** ******
      ****** ****** ****** ****** ****** ****** ****** ****** ****** ******
  15  ****** ****** ****** ****** ****** ****** ****** ****** ****** ******
      ****** ****** ****** ****** ****** ****** ****** ****** ****** ******
      ****** ****** ****** ****** ****** ****** ****** ****** ****** ******
  16  ****** ****** ****** ****** ****** ****** ****** ****** ****** ******
      ****** ****** ****** ****** ****** ****** ****** ****** ****** ******
      ****** ****** ****** ****** ****** ****** ****** ****** ****** ******
  17  ****** ****** ****** ****** ****** ****** ****** ****** ****** ******
      ****** ****** ****** ****** ****** ****** ****** ****** ****** ******
      ****** ****** ****** ****** ****** ****** ****** ****** ****** ******
  18  ****** ****** ****** ****** ****** ****** ****** ****** ****** ******
      ****** ****** ****** ****** ****** ****** ****** ****** ****** ******
      ****** ****** ****** ****** ****** ****** ****** ****** ****** ******
  19  ****** ****** ****** ****** ****** ****** ****** ****** ****** ******
      ****** ****** ****** ****** ****** ****** ****** ****** ****** ******
      ****** ****** ****** ****** ****** ****** ****** ****** ****** ******
  20  ****** ****** ****** ****** ****** ****** ****** ****** ****** ******
      ****** ****** ****** ****** ****** ****** ****** ****** ****** ******
      ****** ****** ****** ****** ****** ****** ****** ****** ****** ******
  21  ****** ****** ****** ****** ****** ****** ****** ****** ****** ******
      ****** ****** ****** ****** ****** ****** ****** ****** ****** ******
      ****** ****** ****** ****** ****** ****** ****** ****** ****** ******
  22  ****** ****** ****** ****** ****** ****** ****** ****** ****** ******
      ****** ****** ****** ****** ****** ****** ****** ****** ****** ******
      ****** ****** ****** ****** ****** ****** ****** ****** ****** ******
  23  ****** ****** ****** ****** ****** ****** ****** ****** ****** ******
      ****** ****** ****** ****** ****** ****** ****** ****** ****** ******
      ****** ****** ****** ****** ****** ****** ****** ****** ****** ******
  24  ****** ****** ****** ****** ****** ****** ****** ****** ****** ******
      ****** ****** ****** ****** ****** ****** ****** ****** ****** ******
      ****** ****** ****** ****** ****** ****** ****** ****** ****** ******
  25  ****** ****** ****** ****** ****** ****** ****** ****** ****** ******
      ****** ****** ****** ****** ****** ****** ****** ****** ****** ******
      ****** ****** ****** ****** ****** ****** ****** ****** ****** ******

 HEAD WILL BE SAVED ON UNIT   51 AT END OF TIME STEP    1, STRESS PERIOD    1
1
  VOLUMETRIC BUDGET FOR ENTIRE MODEL AT END OF TIME STEP    1, STRESS PERIOD   1
  ------------------------------------------------------------------------------

     CUMULATIVE VOLUMES      L**3       RATES FOR THIS TIME STEP      L**3/T
     ------------------                 ------------------------

           IN:                                      IN:
           ---                                      ---
             STORAGE =    19452670.5303               STORAGE =      211442.0710
       CONSTANT HEAD =   106514524.2921         CONSTANT HEAD =     1157766.5684
               WELLS =           0.0000                 WELLS =           0.0000
            RECHARGE =     1269600.0000              RECHARGE =       13800.0000
      STREAM LEAKAGE =           0.0000        STREAM LEAKAGE =           0.0000

            TOTAL IN =   127236794.8224              TOTAL IN =     1383008.6394

          OUT:                                     OUT:
          ----                                     ----
             STORAGE =           0.0000               STORAGE =           0.0000
       CONSTANT HEAD =           0.0000         CONSTANT HEAD =           0.0000
               WELLS =    11788519.1269                 WELLS =      128136.0775
            RECHARGE =           0.0000              RECHARGE =           0.0000
      STREAM LEAKAGE =   115448277.4235        STREAM LEAKAGE =     1254872.5807

           TOTAL OUT =   127236796.5504             TOTAL OUT =     1383008.6582

            IN - OUT =          -1.7280              IN - OUT =      -1.8783E-02

 PERCENT DISCREPANCY =          -0.00     PERCENT DISCREPANCY =          -0.00






         TIME SUMMARY AT END OF TIME STEP    1 IN STRESS PERIOD    1
                    SECONDS     MINUTES      HOURS       DAYS        YEARS
                    -----------------------------------------------------------
   TIME STEP LENGTH 7.94880E+06 1.32480E+05  2208.0      92.000     0.25188    
 STRESS PERIOD TIME 7.94880E+06 1.32480E+05  2208.0      92.000     0.25188    
         TOTAL TIME 7.94880E+06 1.32480E+05  2208.0      92.000     0.25188    
1
1
                            STRESS PERIOD NO.    2, LENGTH =   91.00000    
                            -----------------------------------------------

                              NUMBER OF TIME STEPS =     1

                               MULTIPLIER FOR DELT =     1.500

                            INITIAL TIME STEP SIZE =   91.00000    

 WELL NO.  LAYER   ROW   COL   STRESS RATE         
 --------------------------------------------------
      1      1     19     16     -0.2814E+05
      2      1      7     26     -0.5000E+05
      3      1     22     20     -0.5000E+05

      3 WELLS

                 RECHARGE =  2.000000E-03

 REUSING STREAM SEGMENT DATA FROM LAST STRESS PERIOD
 
 SOLVING FOR HEAD 


     6 CALLS TO PCG ROUTINE FOR TIME STEP   1 IN STRESS PERIOD    2
    25 TOTAL ITERATIONS

 OUTPUT CONTROL FOR STRESS PERIOD    2   TIME STEP    1
    SAVE BUDGET
    SAVE HEAD FOR ALL LAYERS
    PRINT HEAD FOR ALL LAYERS
 UBDSV2 SAVING "STREAMFLOW OUT  " ON UNIT  50 AT TIME STEP  1, STRESS PERIOD   2



 STREAM LISTING     PERIOD      2   STEP        1

 LAYER ROW COL. STREAM  RCH.  FLOW INTO     FLOW TO   FLOW OUT OF   OVRLND.     DIRECT     STREAM       STREAM     STREAM     STREAM   STREAMBED  STREAMBED
                SEG.NO.  NO.  STRM. RCH.    AQUIFER    STRM. RCH.    RUNOFF     PRECIP       ET          HEAD       DEPTH      WIDTH   CONDCTNC.   GRADIENT

   1   13    1     1     1    1.0000E+05 -2.8504E+04   1.2850E+05  0.000E+00  0.000E+00  0.000E+00  4.84181E+01  1.567E-01  2.000E+01  2.000E+04 -1.425E+00
   1   13    2     1     2    1.2850E+05 -3.8388E+04   1.6689E+05  0.000E+00  0.000E+00  0.000E+00  4.79669E+01  1.828E-01  2.000E+01  2.000E+04 -1.919E+00
   1   14    3     1     3    1.6689E+05 -3.3805E+04   2.0070E+05  0.000E+00  0.000E+00  0.000E+00  4.75152E+01  2.084E-01  2.000E+01  2.000E+04 -1.690E+00
   1   15    4     1     4    2.0070E+05 -3.2963E+04   2.3366E+05  0.000E+00  0.000E+00  0.000E+00  4.70599E+01  2.304E-01  2.000E+01  2.000E+04 -1.648E+00
   1   16    5     1     5    2.3366E+05 -3.4322E+04   2.6798E+05  0.000E+00  0.000E+00  0.000E+00  4.66034E+01  2.512E-01  2.000E+01  2.000E+04 -1.716E+00
   1   16    6     1     6    2.6798E+05 -2.9947E+04   2.9793E+05  0.000E+00  0.000E+00  0.000E+00  4.61450E+01  2.700E-01  2.000E+01  2.000E+04 -1.497E+00
   1   16    7     1     7    2.9793E+05 -2.9703E+04   3.2763E+05  0.000E+00  0.000E+00  0.000E+00  4.56845E+01  2.867E-01  2.000E+01  2.000E+04 -1.485E+00
   1   16    8     1     8    3.2763E+05 -2.9788E+04   3.5742E+05  0.000E+00  0.000E+00  0.000E+00  4.52232E+01  3.028E-01  2.000E+01  2.000E+04 -1.489E+00
   1   16    9     1     9    3.5742E+05 -2.9715E+04   3.8714E+05  0.000E+00  0.000E+00  0.000E+00  4.47615E+01  3.183E-01  2.000E+01  2.000E+04 -1.486E+00
   1   16   10     1    10    3.8714E+05 -2.9496E+04   4.1663E+05  0.000E+00  0.000E+00  0.000E+00  4.42992E+01  3.333E-01  2.000E+01  2.000E+04 -1.475E+00
   1   16   11     1    11    4.1663E+05 -2.9661E+04   4.4629E+05  0.000E+00  0.000E+00  0.000E+00  4.38364E+01  3.478E-01  2.000E+01  2.000E+04 -1.483E+00
   1   16   12     1    12    4.4629E+05 -3.4103E+04   4.8039E+05  0.000E+00  0.000E+00  0.000E+00  4.33743E+01  3.630E-01  2.000E+01  2.000E+04 -1.705E+00
   1   15   13     1    13    4.8039E+05 -3.3009E+04   5.1340E+05  0.000E+00  0.000E+00  0.000E+00  4.29126E+01  3.785E-01  2.000E+01  2.000E+04 -1.650E+00
   1   14   14     1    14    5.1340E+05 -3.3930E+04   5.4733E+05  0.000E+00  0.000E+00  0.000E+00  4.24504E+01  3.936E-01  2.000E+01  2.000E+04 -1.696E+00
   1   13   15     1    15    5.4733E+05 -3.6622E+04   5.8396E+05  0.000E+00  0.000E+00  0.000E+00  4.19887E+01  4.091E-01  2.000E+01  2.000E+04 -1.831E+00
   1   12   16     1    16    5.8396E+05 -4.3207E+04   6.2716E+05  0.000E+00  0.000E+00  0.000E+00  4.15285E+01  4.262E-01  2.000E+01  2.000E+04 -2.160E+00
   1   12   17     1    17    6.2716E+05 -3.3472E+04   6.6064E+05  0.000E+00  0.000E+00  0.000E+00  4.10672E+01  4.422E-01  2.000E+01  2.000E+04 -1.674E+00
   1   12   18     1    18    6.6064E+05 -3.1716E+04   6.9235E+05  0.000E+00  0.000E+00  0.000E+00  4.06032E+01  4.555E-01  2.000E+01  2.000E+04 -1.586E+00
   1   12   19     1    19    6.9235E+05 -3.5654E+04   7.2801E+05  0.000E+00  0.000E+00  0.000E+00  4.01394E+01  4.690E-01  2.000E+01  2.000E+04 -1.783E+00
   1   13   20     1    20    7.2801E+05 -2.5457E+04   7.5346E+05  0.000E+00  0.000E+00  0.000E+00  3.96742E+01  4.810E-01  2.000E+01  2.000E+04 -1.273E+00
   1   14   21     1    21    7.5346E+05 -1.8043E+04   7.7150E+05  0.000E+00  0.000E+00  0.000E+00  3.92053E+01  4.894E-01  2.000E+01  2.000E+04 -9.021E-01
   1   14   22     1    22    7.7150E+05 -1.1278E+03   7.7263E+05  0.000E+00  0.000E+00  0.000E+00  3.87317E+01  4.931E-01  2.000E+01  2.000E+04 -5.639E-02
   1    9   30     2     1    5.0000E+04 -2.4474E+04   7.4474E+04  0.000E+00  0.000E+00  0.000E+00  4.02571E+01  1.321E-01  2.000E+01  2.000E+04 -1.224E+00
   1    9   29     2     2    7.4474E+04 -2.6388E+04   1.0086E+05  0.000E+00  0.000E+00  0.000E+00  4.00373E+01  1.623E-01  2.000E+01  2.000E+04 -1.319E+00
   1    9   28     2     3    1.0086E+05 -2.9294E+04   1.3016E+05  0.000E+00  0.000E+00  0.000E+00  3.98165E+01  1.915E-01  2.000E+01  2.000E+04 -1.465E+00
   1    9   27     2     4    1.3016E+05 -4.0107E+04   1.7026E+05  0.000E+00  0.000E+00  0.000E+00  3.95992E+01  2.242E-01  2.000E+01  2.000E+04 -2.005E+00
   1   10   26     2     5    1.7026E+05 -2.8995E+04   1.9926E+05  0.000E+00  0.000E+00  0.000E+00  3.93788E+01  2.538E-01  2.000E+01  2.000E+04 -1.450E+00
   1   11   25     2     6    1.9926E+05 -2.2954E+04   2.2221E+05  0.000E+00  0.000E+00  0.000E+00  3.91497E+01  2.747E-01  2.000E+01  2.000E+04 -1.148E+00
   1   12   24     2     7    2.2221E+05 -1.7518E+04   2.3973E+05  0.000E+00  0.000E+00  0.000E+00  3.89152E+01  2.902E-01  2.000E+01  2.000E+04 -8.759E-01
   1   13   23     2     8    2.3973E+05 -1.2667E+04   2.5240E+05  0.000E+00  0.000E+00  0.000E+00  3.86764E+01  3.014E-01  2.000E+01  2.000E+04 -6.334E-01
   1   14   22     2     9    2.5240E+05 -7.0893E+03   2.5948E+05  0.000E+00  0.000E+00  0.000E+00  3.84336E+01  3.086E-01  2.000E+01  2.000E+04 -3.545E-01
   1   14   22     3     1    1.0321E+06 -1.4869E+04   1.0470E+06  0.000E+00  0.000E+00  0.000E+00  3.80447E+01  4.891E-01  2.000E+01  2.000E+04 -7.434E-01
   1   15   23     3     2    1.0470E+06 -2.2186E+04   1.0692E+06  0.000E+00  0.000E+00  0.000E+00  3.71610E+01  4.943E-01  2.000E+01  2.000E+04 -1.109E+00
   1   15   24     3     3    1.0692E+06 -1.8866E+04   1.0880E+06  0.000E+00  0.000E+00  0.000E+00  3.62778E+01  5.001E-01  2.000E+01  2.000E+04 -9.433E-01
   1   15   25     3     4    1.0880E+06 -1.8769E+04   1.1068E+06  0.000E+00  0.000E+00  0.000E+00  3.53942E+01  5.053E-01  2.000E+01  2.000E+04 -9.384E-01
   1   15   26     3     5    1.1068E+06 -2.1748E+04   1.1286E+06  0.000E+00  0.000E+00  0.000E+00  3.45108E+01  5.108E-01  2.000E+01  2.000E+04 -1.087E+00
   1   16   27     3     6    1.1286E+06 -2.8818E+04   1.1574E+06  0.000E+00  0.000E+00  0.000E+00  3.36289E+01  5.177E-01  2.000E+01  2.000E+04 -1.441E+00
   1   17   28     3     7    1.1574E+06 -3.5935E+04   1.1933E+06  0.000E+00  0.000E+00  0.000E+00  3.27487E+01  5.265E-01  2.000E+01  2.000E+04 -1.797E+00
   1   18   29     3     8    1.1933E+06 -4.7000E+04   1.2403E+06  0.000E+00  0.000E+00  0.000E+00  3.18709E+01  5.376E-01  2.000E+01  2.000E+04 -2.350E+00
   1   18   30     3     9    1.2403E+06 -4.3639E+04   1.2839E+06  0.000E+00  0.000E+00  0.000E+00  3.09939E+01  5.495E-01  2.000E+01  2.000E+04 -2.182E+00



1
              HEAD IN LAYER   1 AT END OF TIME STEP   1 IN STRESS PERIOD    2
  ---------------------------------------------------------------------------

          1      2      3      4      5      6      7      8      9     10
         11     12     13     14     15     16     17     18     19     20
         21     22     23     24     25     26     27     28     29     30
 .........................................................................
   1  ****** ****** ****** ****** ****** ****** ****** ****** ****** ******
      ****** ****** ****** ****** ****** ****** ****** ****** ****** ******
      ****** ****** ****** ****** ****** ****** ****** ****** ****** ******
   2  ****** ****** ****** ****** ****** ****** ****** ****** ****** ******
      ****** ****** ****** ****** ****** ****** ****** ****** ****** ******
      ****** ****** ****** ****** ****** ****** ****** ****** ****** ******
   3  ****** ****** ****** ****** ****** ****** ****** ****** ****** ******
      ****** ****** ****** ****** ****** ****** ****** ****** ****** ******
      ****** ****** ****** ****** ****** ****** ****** ****** ****** ******
   4  ****** ****** ****** ****** ****** ****** ****** ****** ****** ******
      ****** ****** ****** ****** ****** ****** ****** ****** ****** ******
      ****** ****** ****** ****** ****** ****** ****** ****** ****** ******
   5  ****** ****** ****** ****** ****** ****** ****** ****** ****** ******
      ****** ****** ****** ****** ****** ****** ****** ****** ****** ******
      ****** ****** ****** ****** ****** ****** ****** ****** ****** ******
   6  ****** ****** ****** ****** ****** ****** ****** ****** ****** ******
      ****** ****** ****** ****** ****** ****** ****** ****** ****** ******
      ****** ****** ****** ****** ****** ****** ****** ****** ****** ******
   7  ****** ****** ****** ****** ****** ****** ****** ****** ****** ******
      ****** ****** ****** ****** ****** ****** ****** ****** ****** ******
      ****** ****** ****** ****** ****** ****** ****** ****** ****** ******
   8  ****** ****** ****** ****** ****** ****** ****** ****** ****** ******
      ****** ****** ****** ****** ****** ****** ****** ****** ****** ******
      ****** ****** ****** ****** ****** ****** ****** ****** ****** ******
   9  ****** ****** ****** ****** ****** ****** ****** ****** ****** ******
      ****** ****** ****** ****** ****** ****** ****** ****** ****** ******
      ****** ****** ****** ****** ****** ****** ****** ****** ****** ******
  10  ****** ****** ****** ****** ****** ****** ****** ****** ****** ******
      ****** ****** ****** ****** ****** ****** ****** ****** ****** ******
      ****** ****** ****** ****** ****** ****** ****** ****** ****** ******
  11  ****** ****** ****** ****** ****** ****** ****** ****** ****** ******
      ****** ****** ****** ****** ****** ****** ****** ****** ****** ******
      ****** ****** ****** ****** ****** ****** ****** ****** ****** ******
  12  ****** ****** ****** ****** ****** ****** ****** ****** ****** ******
      ****** ****** ****** ****** ****** ****** ****** ****** ****** ******
      ****** ****** ****** ****** ****** ****** ****** ****** ****** ******
  13  ****** ****** ****** ****** ****** ****** ****** ****** ****** ******
      ****** ****** ****** ****** ****** ****** ****** ****** ****** ******
      ****** ****** ****** ****** ****** ****** ****** ****** ****** ******
  14  ****** ****** ****** ****** ****** ****** ****** ****** ****** ******
      ****** ****** ****** ****** ****** ****** ****** ****** ****** ******
      ****** ****** ****** ****** ****** ****** ****** ****** ****** ******
  15  ****** ****** ****** ****** ****** ****** ****** ****** ****** ******
      ****** ****** ****** ****** ****** ****** ****** ****** ****** ******
      ****** ****** ****** ****** ****** ****** ****** ****** ****** ******
  16  ****** ****** ****** ****** ****** ****** ****** ****** ****** ******
      ****** ****** ****** ****** ****** ****** ****** ****** ****** ******
      ****** ****** ****** ****** ****** ****** ****** ****** ****** ******
  17  ****** ****** ****** ****** ****** ****** ****** ****** ****** ******
      ****** ****** ****** ****** ****** ****** ****** ****** ****** ******
      ****** ****** ****** ****** ****** ****** ****** ****** ****** ******
  18  ****** ****** ****** ****** ****** ****** ****** ****** ****** ******
      ****** ****** ****** ****** ****** ****** ****** ****** ****** ******
      ****** ****** ****** ****** ****** ****** ****** ****** ****** ******
  19  ****** ****** ****** ****** ****** ****** ****** ****** ****** ******
      ****** ****** ****** ****** ****** ****** ****** ****** ****** ******
      ****** ****** ****** ****** ****** ****** ****** ****** ****** ******
  20  ****** ****** ****** ****** ****** ****** ****** ****** ****** ******
      ****** ****** ****** ****** ****** ****** ****** ****** ****** ******
      ****** ****** ****** ****** ****** ****** ****** ****** ****** ******
  21  ****** ****** ****** ****** ****** ****** ****** ****** ****** ******
      ****** ****** ****** ****** ****** ****** ****** ****** ****** ******
      ****** ****** ****** ****** ****** ****** ****** ****** ****** ******
  22  ****** ****** ****** ****** ****** ****** ****** ****** ****** ******
      ****** ****** ****** ****** ****** ****** ****** ****** ****** ******
      ****** ****** ****** ****** ****** ****** ****** ****** ****** ******
  23  ****** ****** ****** ****** ****** ****** ****** ****** ****** ******
      ****** ****** ****** ****** ****** ****** ****** ****** ****** ******
      ****** ****** ****** ****** ****** ****** ****** ****** ****** ******
  24  ****** ****** ****** ****** ****** ****** ****** ****** ****** ******
      ****** ****** ****** ****** ****** ****** ****** ****** ****** ******
      ****** ****** ****** ****** ****** ****** ****** ****** ****** ******
  25  ****** ****** ****** ****** ****** ****** ****** ****** ****** ******
      ****** ****** ****** ****** ****** ****** ****** ****** ****** ******
      ****** ****** ****** ****** ****** ****** ****** ****** ****** ******

 HEAD WILL BE SAVED ON UNIT   51 AT END OF TIME STEP    1, STRESS PERIOD    2
1
  VOLUMETRIC BUDGET FOR ENTIRE MODEL AT END OF TIME STEP    1, STRESS PERIOD   2
  ------------------------------------------------------------------------------

     CUMULATIVE VOLUMES      L**3       RATES FOR THIS TIME STEP      L**3/T
     ------------------                 ------------------------

           IN:                                      IN:
           ---                                      ---
             STORAGE =    20145246.6816               STORAGE =        7610.7269
       CONSTANT HEAD =   215648336.1209         CONSTANT HEAD =     1199272.6575
               WELLS =           0.0000                 WELLS =           0.0000
            RECHARGE =     6292800.0000              RECHARGE =       55200.0000
      STREAM LEAKAGE =           0.0000        STREAM LEAKAGE =           0.0000

            TOTAL IN =   242086382.8025              TOTAL IN =     1262083.3844

          OUT:                                     OUT:
          ----                                     ----
             STORAGE =           0.0000               STORAGE =           0.0000
       CONSTANT HEAD =           0.0000         CONSTANT HEAD =           0.0000
               WELLS =    23448902.1763                 WELLS =      128136.0775
            RECHARGE =           0.0000              RECHARGE =           0.0000
      STREAM LEAKAGE =   218637484.0282        STREAM LEAKAGE =     1133947.3253

           TOTAL OUT =   242086386.2046             TOTAL OUT =     1262083.4028

            IN - OUT =          -3.4020              IN - OUT =      -1.8396E-02

 PERCENT DISCREPANCY =          -0.00     PERCENT DISCREPANCY =          -0.00






         TIME SUMMARY AT END OF TIME STEP    1 IN STRESS PERIOD    2
                    SECONDS     MINUTES      HOURS       DAYS        YEARS
                    -----------------------------------------------------------
   TIME STEP LENGTH 7.86240E+06 1.31040E+05  2184.0      91.000     0.24914    
 STRESS PERIOD TIME 7.86240E+06 1.31040E+05  2184.0      91.000     0.24914    
         TOTAL TIME 1.58112E+07 2.63520E+05  4392.0      183.00     0.50103    
1
1
                            STRESS PERIOD NO.    3, LENGTH =   91.00000    
                            -----------------------------------------------

                              NUMBER OF TIME STEPS =     1

                               MULTIPLIER FOR DELT =     1.500

                            INITIAL TIME STEP SIZE =   91.00000    

 WELL NO.  LAYER   ROW   COL   STRESS RATE         
 --------------------------------------------------
      1      1     19     16     -0.2814E+05
      2      1      7     26     -0.5000E+05
      3      1     22     20     -0.5000E+05

      3 WELLS

                 RECHARGE =   0.00000    

 REUSING STREAM SEGMENT DATA FROM LAST STRESS PERIOD
 
 SOLVING FOR HEAD 


     6 CALLS TO PCG ROUTINE FOR TIME STEP   1 IN STRESS PERIOD    3
    23 TOTAL ITERATIONS

 OUTPUT CONTROL FOR STRESS PERIOD    3   TIME STEP    1
    SAVE BUDGET
    SAVE HEAD FOR ALL LAYERS
    PRINT HEAD FOR ALL LAYERS
 UBDSV2 SAVING "STREAMFLOW OUT  " ON UNIT  50 AT TIME STEP  1, STRESS PERIOD   3



 STREAM LISTING     PERIOD      3   STEP        1

 LAYER ROW COL. STREAM  RCH.  FLOW INTO     FLOW TO   FLOW OUT OF   OVRLND.     DIRECT     STREAM       STREAM     STREAM     STREAM   STREAMBED  STREAMBED
                SEG.NO.  NO.  STRM. RCH.    AQUIFER    STRM. RCH.    RUNOFF     PRECIP       ET          HEAD       DEPTH      WIDTH   CONDCTNC.   GRADIENT

   1   13    1     1     1    1.0000E+05 -2.7472E+04   1.2747E+05  0.000E+00  0.000E+00  0.000E+00  4.84176E+01  1.563E-01  2.000E+01  2.000E+04 -1.374E+00
   1   13    2     1     2    1.2747E+05 -3.7147E+04   1.6462E+05  0.000E+00  0.000E+00  0.000E+00  4.79656E+01  1.816E-01  2.000E+01  2.000E+04 -1.857E+00
   1   14    3     1     3    1.6462E+05 -3.2604E+04   1.9722E+05  0.000E+00  0.000E+00  0.000E+00  4.75133E+01  2.065E-01  2.000E+01  2.000E+04 -1.630E+00
   1   15    4     1     4    1.9722E+05 -3.1819E+04   2.2904E+05  0.000E+00  0.000E+00  0.000E+00  4.70573E+01  2.278E-01  2.000E+01  2.000E+04 -1.591E+00
   1   16    5     1     5    2.2904E+05 -3.3302E+04   2.6234E+05  0.000E+00  0.000E+00  0.000E+00  4.66003E+01  2.481E-01  2.000E+01  2.000E+04 -1.665E+00
   1   16    6     1     6    2.6234E+05 -2.9056E+04   2.9140E+05  0.000E+00  0.000E+00  0.000E+00  4.61415E+01  2.665E-01  2.000E+01  2.000E+04 -1.453E+00
   1   16    7     1     7    2.9140E+05 -2.8818E+04   3.2022E+05  0.000E+00  0.000E+00  0.000E+00  4.56806E+01  2.829E-01  2.000E+01  2.000E+04 -1.441E+00
   1   16    8     1     8    3.2022E+05 -2.8899E+04   3.4912E+05  0.000E+00  0.000E+00  0.000E+00  4.52191E+01  2.986E-01  2.000E+01  2.000E+04 -1.445E+00
   1   16    9     1     9    3.4912E+05 -2.8826E+04   3.7794E+05  0.000E+00  0.000E+00  0.000E+00  4.47570E+01  3.138E-01  2.000E+01  2.000E+04 -1.441E+00
   1   16   10     1    10    3.7794E+05 -2.8609E+04   4.0655E+05  0.000E+00  0.000E+00  0.000E+00  4.42944E+01  3.284E-01  2.000E+01  2.000E+04 -1.430E+00
   1   16   11     1    11    4.0655E+05 -2.8762E+04   4.3532E+05  0.000E+00  0.000E+00  0.000E+00  4.38313E+01  3.427E-01  2.000E+01  2.000E+04 -1.438E+00
   1   16   12     1    12    4.3532E+05 -3.3055E+04   4.6837E+05  0.000E+00  0.000E+00  0.000E+00  4.33689E+01  3.575E-01  2.000E+01  2.000E+04 -1.653E+00
   1   15   13     1    13    4.6837E+05 -3.1840E+04   5.0021E+05  0.000E+00  0.000E+00  0.000E+00  4.29068E+01  3.727E-01  2.000E+01  2.000E+04 -1.592E+00
   1   14   14     1    14    5.0021E+05 -3.2717E+04   5.3293E+05  0.000E+00  0.000E+00  0.000E+00  4.24443E+01  3.874E-01  2.000E+01  2.000E+04 -1.636E+00
   1   13   15     1    15    5.3293E+05 -3.5417E+04   5.6834E+05  0.000E+00  0.000E+00  0.000E+00  4.19821E+01  4.026E-01  2.000E+01  2.000E+04 -1.771E+00
   1   12   16     1    16    5.6834E+05 -4.2041E+04   6.1039E+05  0.000E+00  0.000E+00  0.000E+00  4.15216E+01  4.193E-01  2.000E+01  2.000E+04 -2.102E+00
   1   12   17     1    17    6.1039E+05 -3.2541E+04   6.4293E+05  0.000E+00  0.000E+00  0.000E+00  4.10601E+01  4.351E-01  2.000E+01  2.000E+04 -1.627E+00
   1   12   18     1    18    6.4293E+05 -3.0832E+04   6.7376E+05  0.000E+00  0.000E+00  0.000E+00  4.05958E+01  4.481E-01  2.000E+01  2.000E+04 -1.542E+00
   1   12   19     1    19    6.7376E+05 -3.4691E+04   7.0845E+05  0.000E+00  0.000E+00  0.000E+00  4.01318E+01  4.614E-01  2.000E+01  2.000E+04 -1.735E+00
   1   13   20     1    20    7.0845E+05 -2.4564E+04   7.3301E+05  0.000E+00  0.000E+00  0.000E+00  3.96663E+01  4.731E-01  2.000E+01  2.000E+04 -1.228E+00
   1   14   21     1    21    7.3301E+05 -1.7275E+04   7.5029E+05  0.000E+00  0.000E+00  0.000E+00  3.91972E+01  4.813E-01  2.000E+01  2.000E+04 -8.638E-01
   1   14   22     1    22    7.5029E+05 -8.6287E+02   7.5115E+05  0.000E+00  0.000E+00  0.000E+00  3.87235E+01  4.849E-01  2.000E+01  2.000E+04 -4.314E-02
   1    9   30     2     1    5.0000E+04 -2.3802E+04   7.3802E+04  0.000E+00  0.000E+00  0.000E+00  4.02567E+01  1.317E-01  2.000E+01  2.000E+04 -1.190E+00
   1    9   29     2     2    7.3802E+04 -2.5716E+04   9.9518E+04  0.000E+00  0.000E+00  0.000E+00  4.00362E+01  1.612E-01  2.000E+01  2.000E+04 -1.286E+00
   1    9   28     2     3    9.9518E+04 -2.8597E+04   1.2812E+05  0.000E+00  0.000E+00  0.000E+00  3.98148E+01  1.898E-01  2.000E+01  2.000E+04 -1.430E+00
   1    9   27     2     4    1.2812E+05 -3.9248E+04   1.6736E+05  0.000E+00  0.000E+00  0.000E+00  3.95970E+01  2.220E-01  2.000E+01  2.000E+04 -1.962E+00
   1   10   26     2     5    1.6736E+05 -2.8101E+04   1.9546E+05  0.000E+00  0.000E+00  0.000E+00  3.93761E+01  2.511E-01  2.000E+01  2.000E+04 -1.405E+00
   1   11   25     2     6    1.9546E+05 -2.2092E+04   2.1756E+05  0.000E+00  0.000E+00  0.000E+00  3.91464E+01  2.714E-01  2.000E+01  2.000E+04 -1.105E+00
   1   12   24     2     7    2.1756E+05 -1.6749E+04   2.3430E+05  0.000E+00  0.000E+00  0.000E+00  3.89114E+01  2.864E-01  2.000E+01  2.000E+04 -8.374E-01
   1   13   23     2     8    2.3430E+05 -1.2046E+04   2.4635E+05  0.000E+00  0.000E+00  0.000E+00  3.86722E+01  2.972E-01  2.000E+01  2.000E+04 -6.023E-01
   1   14   22     2     9    2.4635E+05 -6.7502E+03   2.5310E+05  0.000E+00  0.000E+00  0.000E+00  3.84291E+01  3.041E-01  2.000E+01  2.000E+04 -3.375E-01
   1   14   22     3     1    1.0043E+06 -1.4598E+04   1.0189E+06  0.000E+00  0.000E+00  0.000E+00  3.80367E+01  4.812E-01  2.000E+01  2.000E+04 -7.299E-01
   1   15   23     3     2    1.0189E+06 -2.1478E+04   1.0403E+06  0.000E+00  0.000E+00  0.000E+00  3.71530E+01  4.863E-01  2.000E+01  2.000E+04 -1.074E+00
   1   15   24     3     3    1.0403E+06 -1.8287E+04   1.0586E+06  0.000E+00  0.000E+00  0.000E+00  3.62697E+01  4.919E-01  2.000E+01  2.000E+04 -9.144E-01
   1   15   25     3     4    1.0586E+06 -1.8197E+04   1.0768E+06  0.000E+00  0.000E+00  0.000E+00  3.53859E+01  4.970E-01  2.000E+01  2.000E+04 -9.098E-01
   1   15   26     3     5    1.0768E+06 -2.1081E+04   1.0979E+06  0.000E+00  0.000E+00  0.000E+00  3.45025E+01  5.025E-01  2.000E+01  2.000E+04 -1.054E+00
   1   16   27     3     6    1.0979E+06 -2.8008E+04   1.1259E+06  0.000E+00  0.000E+00  0.000E+00  3.36204E+01  5.093E-01  2.000E+01  2.000E+04 -1.400E+00
   1   17   28     3     7    1.1259E+06 -3.5108E+04   1.1610E+06  0.000E+00  0.000E+00  0.000E+00  3.27401E+01  5.179E-01  2.000E+01  2.000E+04 -1.755E+00
   1   18   29     3     8    1.1610E+06 -4.6229E+04   1.2072E+06  0.000E+00  0.000E+00  0.000E+00  3.18622E+01  5.289E-01  2.000E+01  2.000E+04 -2.311E+00
   1   18   30     3     9    1.2072E+06 -4.2998E+04   1.2502E+06  0.000E+00  0.000E+00  0.000E+00  3.09852E+01  5.407E-01  2.000E+01  2.000E+04 -2.150E+00



1
              HEAD IN LAYER   1 AT END OF TIME STEP   1 IN STRESS PERIOD    3
  ---------------------------------------------------------------------------

          1      2      3      4      5      6      7      8      9     10
         11     12     13     14     15     16     17     18     19     20
         21     22     23     24     25     26     27     28     29     30
 .........................................................................
   1  ****** ****** ****** ****** ****** ****** ****** ****** ****** ******
      ****** ****** ****** ****** ****** ****** ****** ****** ****** ******
      ****** ****** ****** ****** ****** ****** ****** ****** ****** ******
   2  ****** ****** ****** ****** ****** ****** ****** ****** ****** ******
      ****** ****** ****** ****** ****** ****** ****** ****** ****** ******
      ****** ****** ****** ****** ****** ****** ****** ****** ****** ******
   3  ****** ****** ****** ****** ****** ****** ****** ****** ****** ******
      ****** ****** ****** ****** ****** ****** ****** ****** ****** ******
      ****** ****** ****** ****** ****** ****** ****** ****** ****** ******
   4  ****** ****** ****** ****** ****** ****** ****** ****** ****** ******
      ****** ****** ****** ****** ****** ****** ****** ****** ****** ******
      ****** ****** ****** ****** ****** ****** ****** ****** ****** ******
   5  ****** ****** ****** ****** ****** ****** ****** ****** ****** ******
      ****** ****** ****** ****** ****** ****** ****** ****** ****** ******
      ****** ****** ****** ****** ****** ****** ****** ****** ****** ******
   6  ****** ****** ****** ****** ****** ****** ****** ****** ****** ******
      ****** ****** ****** ****** ****** ****** ****** ****** ****** ******
      ****** ****** ****** ****** ****** ****** ****** ****** ****** ******
   7  ****** ****** ****** ****** ****** ****** ****** ****** ****** ******
      ****** ****** ****** ****** ****** ****** ****** ****** ****** ******
      ****** ****** ****** ****** ****** ****** ****** ****** ****** ******
   8  ****** ****** ****** ****** ****** ****** ****** ****** ****** ******
      ****** ****** ****** ****** ****** ****** ****** ****** ****** ******
      ****** ****** ****** ****** ****** ****** ****** ****** ****** ******
   9  ****** ****** ****** ****** ****** ****** ****** ****** ****** ******
      ****** ****** ****** ****** ****** ****** ****** ****** ****** ******
      ****** ****** ****** ****** ****** ****** ****** ****** ****** ******
  10  ****** ****** ****** ****** ****** ****** ****** ****** ****** ******
      ****** ****** ****** ****** ****** ****** ****** ****** ****** ******
      ****** ****** ****** ****** ****** ****** ****** ****** ****** ******
  11  ****** ****** ****** ****** ****** ****** ****** ****** ****** ******
      ****** ****** ****** ****** ****** ****** ****** ****** ****** ******
      ****** ****** ****** ****** ****** ****** ****** ****** ****** ******
  12  ****** ****** ****** ****** ****** ****** ****** ****** ****** ******
      ****** ****** ****** ****** ****** ****** ****** ****** ****** ******
      ****** ****** ****** ****** ****** ****** ****** ****** ****** ******
  13  ****** ****** ****** ****** ****** ****** ****** ****** ****** ******
      ****** ****** ****** ****** ****** ****** ****** ****** ****** ******
      ****** ****** ****** ****** ****** ****** ****** ****** ****** ******
  14  ****** ****** ****** ****** ****** ****** ****** ****** ****** ******
      ****** ****** ****** ****** ****** ****** ****** ****** ****** ******
      ****** ****** ****** ****** ****** ****** ****** ****** ****** ******
  15  ****** ****** ****** ****** ****** ****** ****** ****** ****** ******
      ****** ****** ****** ****** ****** ****** ****** ****** ****** ******
      ****** ****** ****** ****** ****** ****** ****** ****** ****** ******
  16  ****** ****** ****** ****** ****** ****** ****** ****** ****** ******
      ****** ****** ****** ****** ****** ****** ****** ****** ****** ******
      ****** ****** ****** ****** ****** ****** ****** ****** ****** ******
  17  ****** ****** ****** ****** ****** ****** ****** ****** ****** ******
      ****** ****** ****** ****** ****** ****** ****** ****** ****** ******
      ****** ****** ****** ****** ****** ****** ****** ****** ****** ******
  18  ****** ****** ****** ****** ****** ****** ****** ****** ****** ******
      ****** ****** ****** ****** ****** ****** ****** ****** ****** ******
      ****** ****** ****** ****** ****** ****** ****** ****** ****** ******
  19  ****** ****** ****** ****** ****** ****** ****** ****** ****** ******
      ****** ****** ****** ****** ****** ****** ****** ****** ****** ******
      ****** ****** ****** ****** ****** ****** ****** ****** ****** ******
  20  ****** ****** ****** ****** ****** ****** ****** ****** ****** ******
      ****** ****** ****** ****** ****** ****** ****** ****** ****** ******
      ****** ****** ****** ****** ****** ****** ****** ****** ****** ******
  21  ****** ****** ****** ****** ****** ****** ****** ****** ****** ******
      ****** ****** ****** ****** ****** ****** ****** ****** ****** ******
      ****** ****** ****** ****** ****** ****** ****** ****** ****** ******
  22  ****** ****** ****** ****** ****** ****** ****** ****** ****** ******
      ****** ****** ****** ****** ****** ****** ****** ****** ****** ******
      ****** ****** ****** ****** ****** ****** ****** ****** ****** ******
  23  ****** ****** ****** ****** ****** ****** ****** ****** ****** ******
      ****** ****** ****** ****** ****** ****** ****** ****** ****** ******
      ****** ****** ****** ****** ****** ****** ****** ****** ****** ******
  24  ****** ****** ****** ****** ****** ****** ****** ****** ****** ******
      ****** ****** ****** ****** ****** ****** ****** ****** ****** ******
      ****** ****** ****** ****** ****** ****** ****** ****** ****** ******
  25  ****** ****** ****** ****** ****** ****** ****** ****** ****** ******
      ****** ****** ****** ****** ****** ****** ****** ****** ****** ******
      ****** ****** ****** ****** ****** ****** ****** ****** ****** ******

 HEAD WILL BE SAVED ON UNIT   51 AT END OF TIME STEP    1, STRESS PERIOD    3
1
  VOLUMETRIC BUDGET FOR ENTIRE MODEL AT END OF TIME STEP    1, STRESS PERIOD   3
  ------------------------------------------------------------------------------

     CUMULATIVE VOLUMES      L**3       RATES FOR THIS TIME STEP      L**3/T
     ------------------                 ------------------------

           IN:                                      IN:
           ---                                      ---
             STORAGE =    20423590.3728               STORAGE =        3058.7219
       CONSTANT HEAD =   327152030.8078         CONSTANT HEAD =     1225315.3262
               WELLS =           0.0000                 WELLS =           0.0000
            RECHARGE =     6292800.0000              RECHARGE =           0.0000
      STREAM LEAKAGE =           0.0000        STREAM LEAKAGE =           0.0000

            TOTAL IN =   353868421.1806              TOTAL IN =     1228374.0481

          OUT:                                     OUT:
          ----                                     ----
             STORAGE =           0.0000               STORAGE =           0.0000
       CONSTANT HEAD =           0.0000         CONSTANT HEAD =           0.0000
               WELLS =    35109285.2258                 WELLS =      128136.0775
            RECHARGE =           0.0000              RECHARGE =           0.0000
      STREAM LEAKAGE =   318759143.3519        STREAM LEAKAGE =     1100238.0145

           TOTAL OUT =   353868428.5777             TOTAL OUT =     1228374.0920

            IN - OUT =          -7.3971              IN - OUT =      -4.3902E-02

 PERCENT DISCREPANCY =          -0.00     PERCENT DISCREPANCY =          -0.00






         TIME SUMMARY AT END OF TIME STEP    1 IN STRESS PERIOD    3
                    SECONDS     MINUTES      HOURS       DAYS        YEARS
                    -----------------------------------------------------------
   TIME STEP LENGTH 7.86240E+06 1.31040E+05  2184.0      91.000     0.24914    
 STRESS PERIOD TIME 7.86240E+06 1.31040E+05  2184.0      91.000     0.24914    
         TOTAL TIME 2.36736E+07 3.94560E+05  6576.0      274.00     0.75017    
1
1
                            STRESS PERIOD NO.    4, LENGTH =   91.00000    
                            -----------------------------------------------

                              NUMBER OF TIME STEPS =     1

                               MULTIPLIER FOR DELT =     1.500

                            INITIAL TIME STEP SIZE =   91.00000    

 WELL NO.  LAYER   ROW   COL   STRESS RATE         
 --------------------------------------------------
      1      1     19     16     -0.2814E+05
      2      1      7     26     -0.5000E+05
      3      1     22     20     -0.5000E+05

      3 WELLS

                 RECHARGE =  1.000000E-03

 REUSING STREAM SEGMENT DATA FROM LAST STRESS PERIOD
 
 SOLVING FOR HEAD 


     6 CALLS TO PCG ROUTINE FOR TIME STEP   1 IN STRESS PERIOD    4
    22 TOTAL ITERATIONS

 OUTPUT CONTROL FOR STRESS PERIOD    4   TIME STEP    1
    SAVE BUDGET
    SAVE HEAD FOR ALL LAYERS
    PRINT HEAD FOR ALL LAYERS
 UBDSV2 SAVING "STREAMFLOW OUT  " ON UNIT  50 AT TIME STEP  1, STRESS PERIOD   4



 STREAM LISTING     PERIOD      4   STEP        1

 LAYER ROW COL. STREAM  RCH.  FLOW INTO     FLOW TO   FLOW OUT OF   OVRLND.     DIRECT     STREAM       STREAM     STREAM     STREAM   STREAMBED  STREAMBED
                SEG.NO.  NO.  STRM. RCH.    AQUIFER    STRM. RCH.    RUNOFF     PRECIP       ET          HEAD       DEPTH      WIDTH   CONDCTNC.   GRADIENT

   1   13    1     1     1    1.0000E+05 -2.7852E+04   1.2785E+05  0.000E+00  0.000E+00  0.000E+00  4.84178E+01  1.564E-01  2.000E+01  2.000E+04 -1.393E+00
   1   13    2     1     2    1.2785E+05 -3.7598E+04   1.6545E+05  0.000E+00  0.000E+00  0.000E+00  4.79661E+01  1.820E-01  2.000E+01  2.000E+04 -1.880E+00
   1   14    3     1     3    1.6545E+05 -3.3053E+04   1.9850E+05  0.000E+00  0.000E+00  0.000E+00  4.75140E+01  2.072E-01  2.000E+01  2.000E+04 -1.653E+00
   1   15    4     1     4    1.9850E+05 -3.2254E+04   2.3076E+05  0.000E+00  0.000E+00  0.000E+00  4.70583E+01  2.287E-01  2.000E+01  2.000E+04 -1.613E+00
   1   16    5     1     5    2.3076E+05 -3.3699E+04   2.6446E+05  0.000E+00  0.000E+00  0.000E+00  4.66015E+01  2.492E-01  2.000E+01  2.000E+04 -1.685E+00
   1   16    6     1     6    2.6446E+05 -2.9400E+04   2.9386E+05  0.000E+00  0.000E+00  0.000E+00  4.61428E+01  2.678E-01  2.000E+01  2.000E+04 -1.470E+00
   1   16    7     1     7    2.9386E+05 -2.9157E+04   3.2301E+05  0.000E+00  0.000E+00  0.000E+00  4.56821E+01  2.843E-01  2.000E+01  2.000E+04 -1.458E+00
   1   16    8     1     8    3.2301E+05 -2.9240E+04   3.5225E+05  0.000E+00  0.000E+00  0.000E+00  4.52206E+01  3.002E-01  2.000E+01  2.000E+04 -1.462E+00
   1   16    9     1     9    3.5225E+05 -2.9166E+04   3.8142E+05  0.000E+00  0.000E+00  0.000E+00  4.47587E+01  3.155E-01  2.000E+01  2.000E+04 -1.458E+00
   1   16   10     1    10    3.8142E+05 -2.8949E+04   4.1037E+05  0.000E+00  0.000E+00  0.000E+00  4.42962E+01  3.303E-01  2.000E+01  2.000E+04 -1.447E+00
   1   16   11     1    11    4.1037E+05 -2.9107E+04   4.3948E+05  0.000E+00  0.000E+00  0.000E+00  4.38332E+01  3.446E-01  2.000E+01  2.000E+04 -1.455E+00
   1   16   12     1    12    4.3948E+05 -3.3457E+04   4.7293E+05  0.000E+00  0.000E+00  0.000E+00  4.33710E+01  3.596E-01  2.000E+01  2.000E+04 -1.673E+00
   1   15   13     1    13    4.7293E+05 -3.2282E+04   5.0521E+05  0.000E+00  0.000E+00  0.000E+00  4.29090E+01  3.749E-01  2.000E+01  2.000E+04 -1.614E+00
   1   14   14     1    14    5.0521E+05 -3.3171E+04   5.3838E+05  0.000E+00  0.000E+00  0.000E+00  4.24466E+01  3.898E-01  2.000E+01  2.000E+04 -1.659E+00
   1   13   15     1    15    5.3838E+05 -3.5866E+04   5.7425E+05  0.000E+00  0.000E+00  0.000E+00  4.19846E+01  4.051E-01  2.000E+01  2.000E+04 -1.793E+00
   1   12   16     1    16    5.7425E+05 -4.2472E+04   6.1672E+05  0.000E+00  0.000E+00  0.000E+00  4.15242E+01  4.219E-01  2.000E+01  2.000E+04 -2.124E+00
   1   12   17     1    17    6.1672E+05 -3.2892E+04   6.4962E+05  0.000E+00  0.000E+00  0.000E+00  4.10628E+01  4.378E-01  2.000E+01  2.000E+04 -1.645E+00
   1   12   18     1    18    6.4962E+05 -3.1170E+04   6.8079E+05  0.000E+00  0.000E+00  0.000E+00  4.05986E+01  4.509E-01  2.000E+01  2.000E+04 -1.558E+00
   1   12   19     1    19    6.8079E+05 -3.5062E+04   7.1585E+05  0.000E+00  0.000E+00  0.000E+00  4.01347E+01  4.643E-01  2.000E+01  2.000E+04 -1.753E+00
   1   13   20     1    20    7.1585E+05 -2.4915E+04   7.4076E+05  0.000E+00  0.000E+00  0.000E+00  3.96693E+01  4.761E-01  2.000E+01  2.000E+04 -1.246E+00
   1   14   21     1    21    7.4076E+05 -1.7578E+04   7.5834E+05  0.000E+00  0.000E+00  0.000E+00  3.92003E+01  4.844E-01  2.000E+01  2.000E+04 -8.789E-01
   1   14   22     1    22    7.5834E+05 -9.7169E+02   7.5931E+05  0.000E+00  0.000E+00  0.000E+00  3.87266E+01  4.880E-01  2.000E+01  2.000E+04 -4.858E-02
   1    9   30     2     1    5.0000E+04 -2.4080E+04   7.4080E+04  0.000E+00  0.000E+00  0.000E+00  4.02569E+01  1.319E-01  2.000E+01  2.000E+04 -1.204E+00
   1    9   29     2     2    7.4080E+04 -2.5994E+04   1.0007E+05  0.000E+00  0.000E+00  0.000E+00  4.00366E+01  1.616E-01  2.000E+01  2.000E+04 -1.300E+00
   1    9   28     2     3    1.0007E+05 -2.8884E+04   1.2896E+05  0.000E+00  0.000E+00  0.000E+00  3.98155E+01  1.905E-01  2.000E+01  2.000E+04 -1.444E+00
   1    9   27     2     4    1.2896E+05 -3.9595E+04   1.6855E+05  0.000E+00  0.000E+00  0.000E+00  3.95979E+01  2.229E-01  2.000E+01  2.000E+04 -1.980E+00
   1   10   26     2     5    1.6855E+05 -2.8462E+04   1.9702E+05  0.000E+00  0.000E+00  0.000E+00  3.93772E+01  2.522E-01  2.000E+01  2.000E+04 -1.423E+00
   1   11   25     2     6    1.9702E+05 -2.2440E+04   2.1946E+05  0.000E+00  0.000E+00  0.000E+00  3.91477E+01  2.727E-01  2.000E+01  2.000E+04 -1.122E+00
   1   12   24     2     7    2.1946E+05 -1.7061E+04   2.3652E+05  0.000E+00  0.000E+00  0.000E+00  3.89130E+01  2.880E-01  2.000E+01  2.000E+04 -8.530E-01
   1   13   23     2     8    2.3652E+05 -1.2300E+04   2.4882E+05  0.000E+00  0.000E+00  0.000E+00  3.86739E+01  2.989E-01  2.000E+01  2.000E+04 -6.150E-01
   1   14   22     2     9    2.4882E+05 -6.8848E+03   2.5570E+05  0.000E+00  0.000E+00  0.000E+00  3.84310E+01  3.060E-01  2.000E+01  2.000E+04 -3.442E-01
   1   14   22     3     1    1.0150E+06 -1.4708E+04   1.0297E+06  0.000E+00  0.000E+00  0.000E+00  3.80398E+01  4.842E-01  2.000E+01  2.000E+04 -7.354E-01
   1   15   23     3     2    1.0297E+06 -2.1761E+04   1.0515E+06  0.000E+00  0.000E+00  0.000E+00  3.71561E+01  4.894E-01  2.000E+01  2.000E+04 -1.088E+00
   1   15   24     3     3    1.0515E+06 -1.8524E+04   1.0700E+06  0.000E+00  0.000E+00  0.000E+00  3.62728E+01  4.951E-01  2.000E+01  2.000E+04 -9.262E-01
   1   15   25     3     4    1.0700E+06 -1.8433E+04   1.0884E+06  0.000E+00  0.000E+00  0.000E+00  3.53891E+01  5.002E-01  2.000E+01  2.000E+04 -9.217E-01
   1   15   26     3     5    1.0884E+06 -2.1357E+04   1.1098E+06  0.000E+00  0.000E+00  0.000E+00  3.45057E+01  5.057E-01  2.000E+01  2.000E+04 -1.068E+00
   1   16   27     3     6    1.1098E+06 -2.8340E+04   1.1381E+06  0.000E+00  0.000E+00  0.000E+00  3.36237E+01  5.126E-01  2.000E+01  2.000E+04 -1.417E+00
   1   17   28     3     7    1.1381E+06 -3.5448E+04   1.1736E+06  0.000E+00  0.000E+00  0.000E+00  3.27435E+01  5.212E-01  2.000E+01  2.000E+04 -1.772E+00
   1   18   29     3     8    1.1736E+06 -4.6548E+04   1.2201E+06  0.000E+00  0.000E+00  0.000E+00  3.18656E+01  5.323E-01  2.000E+01  2.000E+04 -2.327E+00
   1   18   30     3     9    1.2201E+06 -4.3266E+04   1.2634E+06  0.000E+00  0.000E+00  0.000E+00  3.09886E+01  5.442E-01  2.000E+01  2.000E+04 -2.163E+00



1
              HEAD IN LAYER   1 AT END OF TIME STEP   1 IN STRESS PERIOD    4
  ---------------------------------------------------------------------------

          1      2      3      4      5      6      7      8      9     10
         11     12     13     14     15     16     17     18     19     20
         21     22     23     24     25     26     27     28     29     30
 .........................................................................
   1  ****** ****** ****** ****** ****** ****** ****** ****** ****** ******
      ****** ****** ****** ****** ****** ****** ****** ****** ****** ******
      ****** ****** ****** ****** ****** ****** ****** ****** ****** ******
   2  ****** ****** ****** ****** ****** ****** ****** ****** ****** ******
      ****** ****** ****** ****** ****** ****** ****** ****** ****** ******
      ****** ****** ****** ****** ****** ****** ****** ****** ****** ******
   3  ****** ****** ****** ****** ****** ****** ****** ****** ****** ******
      ****** ****** ****** ****** ****** ****** ****** ****** ****** ******
      ****** ****** ****** ****** ****** ****** ****** ****** ****** ******
   4  ****** ****** ****** ****** ****** ****** ****** ****** ****** ******
      ****** ****** ****** ****** ****** ****** ****** ****** ****** ******
      ****** ****** ****** ****** ****** ****** ****** ****** ****** ******
   5  ****** ****** ****** ****** ****** ****** ****** ****** ****** ******
      ****** ****** ****** ****** ****** ****** ****** ****** ****** ******
      ****** ****** ****** ****** ****** ****** ****** ****** ****** ******
   6  ****** ****** ****** ****** ****** ****** ****** ****** ****** ******
      ****** ****** ****** ****** ****** ****** ****** ****** ****** ******
      ****** ****** ****** ****** ****** ****** ****** ****** ****** ******
   7  ****** ****** ****** ****** ****** ****** ****** ****** ****** ******
      ****** ****** ****** ****** ****** ****** ****** ****** ****** ******
      ****** ****** ****** ****** ****** ****** ****** ****** ****** ******
   8  ****** ****** ****** ****** ****** ****** ****** ****** ****** ******
      ****** ****** ****** ****** ****** ****** ****** ****** ****** ******
      ****** ****** ****** ****** ****** ****** ****** ****** ****** ******
   9  ****** ****** ****** ****** ****** ****** ****** ****** ****** ******
      ****** ****** ****** ****** ****** ****** ****** ****** ****** ******
      ****** ****** ****** ****** ****** ****** ****** ****** ****** ******
  10  ****** ****** ****** ****** ****** ****** ****** ****** ****** ******
      ****** ****** ****** ****** ****** ****** ****** ****** ****** ******
      ****** ****** ****** ****** ****** ****** ****** ****** ****** ******
  11  ****** ****** ****** ****** ****** ****** ****** ****** ****** ******
      ****** ****** ****** ****** ****** ****** ****** ****** ****** ******
      ****** ****** ****** ****** ****** ****** ****** ****** ****** ******
  12  ****** ****** ****** ****** ****** ****** ****** ****** ****** ******
      ****** ****** ****** ****** ****** ****** ****** ****** ****** ******
      ****** ****** ****** ****** ****** ****** ****** ****** ****** ******
  13  ****** ****** ****** ****** ****** ****** ****** ****** ****** ******
      ****** ****** ****** ****** ****** ****** ****** ****** ****** ******
      ****** ****** ****** ****** ****** ****** ****** ****** ****** ******
  14  ****** ****** ****** ****** ****** ****** ****** ****** ****** ******
      ****** ****** ****** ****** ****** ****** ****** ****** ****** ******
      ****** ****** ****** ****** ****** ****** ****** ****** ****** ******
  15  ****** ****** ****** ****** ****** ****** ****** ****** ****** ******
      ****** ****** ****** ****** ****** ****** ****** ****** ****** ******
      ****** ****** ****** ****** ****** ****** ****** ****** ****** ******
  16  ****** ****** ****** ****** ****** ****** ****** ****** ****** ******
      ****** ****** ****** ****** ****** ****** ****** ****** ****** ******
      ****** ****** ****** ****** ****** ****** ****** ****** ****** ******
  17  ****** ****** ****** ****** ****** ****** ****** ****** ****** ******
      ****** ****** ****** ****** ****** ****** ****** ****** ****** ******
      ****** ****** ****** ****** ****** ****** ****** ****** ****** ******
  18  ****** ****** ****** ****** ****** ****** ****** ****** ****** ******
      ****** ****** ****** ****** ****** ****** ****** ****** ****** ******
      ****** ****** ****** ****** ****** ****** ****** ****** ****** ******
  19  ****** ****** ****** ****** ****** ****** ****** ****** ****** ******
      ****** ****** ****** ****** ****** ****** ****** ****** ****** ******
      ****** ****** ****** ****** ****** ****** ****** ****** ****** ******
  20  ****** ****** ****** ****** ****** ****** ****** ****** ****** ******
      ****** ****** ****** ****** ****** ****** ****** ****** ****** ******
      ****** ****** ****** ****** ****** ****** ****** ****** ****** ******
  21  ****** ****** ****** ****** ****** ****** ****** ****** ****** ******
      ****** ****** ****** ****** ****** ****** ****** ****** ****** ******
      ****** ****** ****** ****** ****** ****** ****** ****** ****** ******
  22  ****** ****** ****** ****** ****** ****** ****** ****** ****** ******
      ****** ****** ****** ****** ****** ****** ****** ****** ****** ******
      ****** ****** ****** ****** ****** ****** ****** ****** ****** ******
  23  ****** ****** ****** ****** ****** ****** ****** ****** ****** ******
      ****** ****** ****** ****** ****** ****** ****** ****** ****** ******
      ****** ****** ****** ****** ****** ****** ****** ****** ****** ******
  24  ****** ****** ****** ****** ****** ****** ****** ****** ****** ******
      ****** ****** ****** ****** ****** ****** ****** ****** ****** ******
      ****** ****** ****** ****** ****** ****** ****** ****** ****** ******
  25  ****** ****** ****** ****** ****** ****** ****** ****** ****** ******
      ****** ****** ****** ****** ****** ****** ****** ****** ****** ******
      ****** ****** ****** ****** ****** ****** ****** ****** ****** ******

 HEAD WILL BE SAVED ON UNIT   51 AT END OF TIME STEP    1, STRESS PERIOD    4
1
  VOLUMETRIC BUDGET FOR ENTIRE MODEL AT END OF TIME STEP    1, STRESS PERIOD   4
  ------------------------------------------------------------------------------

     CUMULATIVE VOLUMES      L**3       RATES FOR THIS TIME STEP      L**3/T
     ------------------                 ------------------------

           IN:                                      IN:
           ---                                      ---
             STORAGE =    20423590.3728               STORAGE =           0.0000
       CONSTANT HEAD =   437723383.8272         CONSTANT HEAD =     1215069.8134
               WELLS =           0.0000                 WELLS =           0.0000
            RECHARGE =     8804400.0000              RECHARGE =       27600.0000
      STREAM LEAKAGE =           0.0000        STREAM LEAKAGE =           0.0000

            TOTAL IN =   466951374.2001              TOTAL IN =     1242669.8134

          OUT:                                     OUT:
          ----                                     ----
             STORAGE =      103322.6572               STORAGE =        1135.4138
       CONSTANT HEAD =           0.0000         CONSTANT HEAD =           0.0000
               WELLS =    46769668.2752                 WELLS =      128136.0775
            RECHARGE =           0.0000              RECHARGE =           0.0000
      STREAM LEAKAGE =   420078388.8001        STREAM LEAKAGE =     1113398.3016

           TOTAL OUT =   466951379.7326             TOTAL OUT =     1242669.7929

            IN - OUT =          -5.5325              IN - OUT =       2.0491E-02

 PERCENT DISCREPANCY =          -0.00     PERCENT DISCREPANCY =           0.00






         TIME SUMMARY AT END OF TIME STEP    1 IN STRESS PERIOD    4
                    SECONDS     MINUTES      HOURS       DAYS        YEARS
                    -----------------------------------------------------------
   TIME STEP LENGTH 7.86240E+06 1.31040E+05  2184.0      91.000     0.24914    
 STRESS PERIOD TIME 7.86240E+06 1.31040E+05  2184.0      91.000     0.24914    
         TOTAL TIME 3.15360E+07 5.25600E+05  8760.0      365.00     0.99932    
1
1
                            STRESS PERIOD NO.    5, LENGTH =   92.00000    
                            -----------------------------------------------

                              NUMBER OF TIME STEPS =     1

                               MULTIPLIER FOR DELT =     1.500

                            INITIAL TIME STEP SIZE =   92.00000    

 WELL NO.  LAYER   ROW   COL   STRESS RATE         
 --------------------------------------------------
      1      1     19     16     -0.2814E+05
      2      1      7     26     -0.5000E+05
      3      1     22     20     -0.5000E+05

      3 WELLS

                 RECHARGE =  5.000000E-04

 REUSING STREAM SEGMENT DATA FROM LAST STRESS PERIOD
 
 SOLVING FOR HEAD 


     5 CALLS TO PCG ROUTINE FOR TIME STEP   1 IN STRESS PERIOD    5
    20 TOTAL ITERATIONS

 OUTPUT CONTROL FOR STRESS PERIOD    5   TIME STEP    1
    SAVE BUDGET
    SAVE HEAD FOR ALL LAYERS
    PRINT HEAD FOR ALL LAYERS
 UBDSV2 SAVING "STREAMFLOW OUT  " ON UNIT  50 AT TIME STEP  1, STRESS PERIOD   5



 STREAM LISTING     PERIOD      5   STEP        1

 LAYER ROW COL. STREAM  RCH.  FLOW INTO     FLOW TO   FLOW OUT OF   OVRLND.     DIRECT     STREAM       STREAM     STREAM     STREAM   STREAMBED  STREAMBED
                SEG.NO.  NO.  STRM. RCH.    AQUIFER    STRM. RCH.    RUNOFF     PRECIP       ET          HEAD       DEPTH      WIDTH   CONDCTNC.   GRADIENT

   1   13    1     1     1    1.0000E+05 -2.7653E+04   1.2765E+05  0.000E+00  0.000E+00  0.000E+00  4.84177E+01  1.563E-01  2.000E+01  2.000E+04 -1.383E+00
   1   13    2     1     2    1.2765E+05 -3.7361E+04   1.6501E+05  0.000E+00  0.000E+00  0.000E+00  4.79659E+01  1.818E-01  2.000E+01  2.000E+04 -1.868E+00
   1   14    3     1     3    1.6501E+05 -3.2819E+04   1.9783E+05  0.000E+00  0.000E+00  0.000E+00  4.75136E+01  2.068E-01  2.000E+01  2.000E+04 -1.641E+00
   1   15    4     1     4    1.9783E+05 -3.2028E+04   2.2986E+05  0.000E+00  0.000E+00  0.000E+00  4.70578E+01  2.282E-01  2.000E+01  2.000E+04 -1.601E+00
   1   16    5     1     5    2.2986E+05 -3.3494E+04   2.6335E+05  0.000E+00  0.000E+00  0.000E+00  4.66009E+01  2.486E-01  2.000E+01  2.000E+04 -1.675E+00
   1   16    6     1     6    2.6335E+05 -2.9222E+04   2.9258E+05  0.000E+00  0.000E+00  0.000E+00  4.61421E+01  2.671E-01  2.000E+01  2.000E+04 -1.461E+00
   1   16    7     1     7    2.9258E+05 -2.8981E+04   3.2156E+05  0.000E+00  0.000E+00  0.000E+00  4.56813E+01  2.836E-01  2.000E+01  2.000E+04 -1.449E+00
   1   16    8     1     8    3.2156E+05 -2.9063E+04   3.5062E+05  0.000E+00  0.000E+00  0.000E+00  4.52198E+01  2.994E-01  2.000E+01  2.000E+04 -1.453E+00
   1   16    9     1     9    3.5062E+05 -2.8990E+04   3.7961E+05  0.000E+00  0.000E+00  0.000E+00  4.47578E+01  3.146E-01  2.000E+01  2.000E+04 -1.449E+00
   1   16   10     1    10    3.7961E+05 -2.8773E+04   4.0838E+05  0.000E+00  0.000E+00  0.000E+00  4.42952E+01  3.293E-01  2.000E+01  2.000E+04 -1.439E+00
   1   16   11     1    11    4.0838E+05 -2.8928E+04   4.3731E+05  0.000E+00  0.000E+00  0.000E+00  4.38322E+01  3.436E-01  2.000E+01  2.000E+04 -1.446E+00
   1   16   12     1    12    4.3731E+05 -3.3249E+04   4.7056E+05  0.000E+00  0.000E+00  0.000E+00  4.33699E+01  3.585E-01  2.000E+01  2.000E+04 -1.662E+00
   1   15   13     1    13    4.7056E+05 -3.2053E+04   5.0261E+05  0.000E+00  0.000E+00  0.000E+00  4.29079E+01  3.738E-01  2.000E+01  2.000E+04 -1.603E+00
   1   14   14     1    14    5.0261E+05 -3.2935E+04   5.3555E+05  0.000E+00  0.000E+00  0.000E+00  4.24454E+01  3.886E-01  2.000E+01  2.000E+04 -1.647E+00
   1   13   15     1    15    5.3555E+05 -3.5632E+04   5.7118E+05  0.000E+00  0.000E+00  0.000E+00  4.19833E+01  4.038E-01  2.000E+01  2.000E+04 -1.782E+00
   1   12   16     1    16    5.7118E+05 -4.2247E+04   6.1343E+05  0.000E+00  0.000E+00  0.000E+00  4.15229E+01  4.206E-01  2.000E+01  2.000E+04 -2.112E+00
   1   12   17     1    17    6.1343E+05 -3.2710E+04   6.4614E+05  0.000E+00  0.000E+00  0.000E+00  4.10614E+01  4.364E-01  2.000E+01  2.000E+04 -1.636E+00
   1   12   18     1    18    6.4614E+05 -3.0995E+04   6.7713E+05  0.000E+00  0.000E+00  0.000E+00  4.05972E+01  4.495E-01  2.000E+01  2.000E+04 -1.550E+00
   1   12   19     1    19    6.7713E+05 -3.4870E+04   7.1200E+05  0.000E+00  0.000E+00  0.000E+00  4.01332E+01  4.628E-01  2.000E+01  2.000E+04 -1.744E+00
   1   13   20     1    20    7.1200E+05 -2.4735E+04   7.3674E+05  0.000E+00  0.000E+00  0.000E+00  3.96678E+01  4.746E-01  2.000E+01  2.000E+04 -1.237E+00
   1   14   21     1    21    7.3674E+05 -1.7423E+04   7.5416E+05  0.000E+00  0.000E+00  0.000E+00  3.91987E+01  4.828E-01  2.000E+01  2.000E+04 -8.711E-01
   1   14   22     1    22    7.5416E+05 -9.1625E+02   7.5508E+05  0.000E+00  0.000E+00  0.000E+00  3.87250E+01  4.864E-01  2.000E+01  2.000E+04 -4.581E-02
   1    9   30     2     1    5.0000E+04 -2.3939E+04   7.3939E+04  0.000E+00  0.000E+00  0.000E+00  4.02568E+01  1.318E-01  2.000E+01  2.000E+04 -1.197E+00
   1    9   29     2     2    7.3939E+04 -2.5853E+04   9.9792E+04  0.000E+00  0.000E+00  0.000E+00  4.00364E+01  1.614E-01  2.000E+01  2.000E+04 -1.293E+00
[...]
  19  ****** ****** ****** ****** ****** ****** ****** ****** ****** ******
      ****** ****** ****** ****** ****** ****** ****** ****** ****** ******
      ****** ****** ****** ****** ****** ****** ****** ****** ****** ******
  20  ****** ****** ****** ****** ****** ****** ****** ****** ****** ******
      ****** ****** ****** ****** ****** ****** ****** ****** ****** ******
      ****** ****** ****** ****** ****** ****** ****** ****** ****** ******
  21  ****** ****** ****** ****** ****** ****** ****** ****** ****** ******
      ****** ****** ****** ****** ****** ****** ****** ****** ****** ******
      ****** ****** ****** ****** ****** ****** ****** ****** ****** ******
  22  ****** ****** ****** ****** ****** ****** ****** ****** ****** ******
      ****** ****** ****** ****** ****** ****** ****** ****** ****** ******
      ****** ****** ****** ****** ****** ****** ****** ****** ****** ******
  23  ****** ****** ****** ****** ****** ****** ****** ****** ****** ******
      ****** ****** ****** ****** ****** ****** ****** ****** ****** ******
      ****** ****** ****** ****** ****** ****** ****** ****** ****** ******
  24  ****** ****** ****** ****** ****** ****** ****** ****** ****** ******
      ****** ****** ****** ****** ****** ****** ****** ****** ****** ******
      ****** ****** ****** ****** ****** ****** ****** ****** ****** ******
  25  ****** ****** ****** ****** ****** ****** ****** ****** ****** ******
      ****** ****** ****** ****** ****** ****** ****** ****** ****** ******
      ****** ****** ****** ****** ****** ****** ****** ****** ****** ******

 HEAD WILL BE SAVED ON UNIT   51 AT END OF TIME STEP    1, STRESS PERIOD   11
1
  VOLUMETRIC BUDGET FOR ENTIRE MODEL AT END OF TIME STEP    1, STRESS PERIOD  11
  ------------------------------------------------------------------------------

     CUMULATIVE VOLUMES      L**3       RATES FOR THIS TIME STEP      L**3/T
     ------------------                 ------------------------

           IN:                                      IN:
           ---                                      ---
             STORAGE =    20931470.1012               STORAGE =        2516.4734
       CONSTANT HEAD =  1207772751.3512         CONSTANT HEAD =     1209765.1620
               WELLS =           0.0000                 WELLS =           0.0000
            RECHARGE =    23901600.0000              RECHARGE =           0.0000
      STREAM LEAKAGE =           0.0000        STREAM LEAKAGE =           0.0000

            TOTAL IN =  1252605821.4524              TOTAL IN =     1212281.6354

          OUT:                                     OUT:
          ----                                     ----
             STORAGE =      701107.7573               STORAGE =           0.0000
       CONSTANT HEAD =           0.0000         CONSTANT HEAD =           0.0000
               WELLS =   108215193.1466                 WELLS =       83325.9270
            RECHARGE =           0.0000              RECHARGE =           0.0000
      STREAM LEAKAGE =  1143689527.9114        STREAM LEAKAGE =     1128955.7531

           TOTAL OUT =  1252605828.8153             TOTAL OUT =     1212281.6800

            IN - OUT =          -7.3629              IN - OUT =      -4.4662E-02

 PERCENT DISCREPANCY =          -0.00     PERCENT DISCREPANCY =          -0.00






         TIME SUMMARY AT END OF TIME STEP    1 IN STRESS PERIOD   11
                    SECONDS     MINUTES      HOURS       DAYS        YEARS
                    -----------------------------------------------------------
   TIME STEP LENGTH 7.86240E+06 1.31040E+05  2184.0      91.000     0.24914    
 STRESS PERIOD TIME 7.86240E+06 1.31040E+05  2184.0      91.000     0.24914    
         TOTAL TIME 8.67456E+07 1.44576E+06  24096.      1004.0      2.7488    
1
1
                            STRESS PERIOD NO.   12, LENGTH =   91.00000    
                            -----------------------------------------------

                              NUMBER OF TIME STEPS =     1

                               MULTIPLIER FOR DELT =     1.500

                            INITIAL TIME STEP SIZE =   91.00000    

 WELL NO.  LAYER   ROW   COL   STRESS RATE         
 --------------------------------------------------
      1      1     19     16     -0.2814E+05
      2      1      7     26      -5190.    
      3      1     22     20     -0.5000E+05

      3 WELLS

                 RECHARGE =  1.000000E-03

 REUSING STREAM SEGMENT DATA FROM LAST STRESS PERIOD
 
 SOLVING FOR HEAD 


     6 CALLS TO PCG ROUTINE FOR TIME STEP   1 IN STRESS PERIOD   12
    22 TOTAL ITERATIONS

 OUTPUT CONTROL FOR STRESS PERIOD   12   TIME STEP    1
    SAVE BUDGET
    SAVE HEAD FOR ALL LAYERS
    PRINT HEAD FOR ALL LAYERS
 UBDSV2 SAVING "STREAMFLOW OUT  " ON UNIT  50 AT TIME STEP  1, STRESS PERIOD  12



 STREAM LISTING     PERIOD     12   STEP        1

 LAYER ROW COL. STREAM  RCH.  FLOW INTO     FLOW TO   FLOW OUT OF   OVRLND.     DIRECT     STREAM       STREAM     STREAM     STREAM   STREAMBED  STREAMBED
                SEG.NO.  NO.  STRM. RCH.    AQUIFER    STRM. RCH.    RUNOFF     PRECIP       ET          HEAD       DEPTH      WIDTH   CONDCTNC.   GRADIENT

   1   13    1     1     1    1.0000E+05 -2.7865E+04   1.2787E+05  0.000E+00  0.000E+00  0.000E+00  4.84178E+01  1.564E-01  2.000E+01  2.000E+04 -1.393E+00
   1   13    2     1     2    1.2787E+05 -3.7617E+04   1.6548E+05  0.000E+00  0.000E+00  0.000E+00  4.79661E+01  1.820E-01  2.000E+01  2.000E+04 -1.881E+00
   1   14    3     1     3    1.6548E+05 -3.3069E+04   1.9855E+05  0.000E+00  0.000E+00  0.000E+00  4.75140E+01  2.072E-01  2.000E+01  2.000E+04 -1.653E+00
   1   15    4     1     4    1.9855E+05 -3.2268E+04   2.3082E+05  0.000E+00  0.000E+00  0.000E+00  4.70583E+01  2.288E-01  2.000E+01  2.000E+04 -1.613E+00
   1   16    5     1     5    2.3082E+05 -3.3708E+04   2.6453E+05  0.000E+00  0.000E+00  0.000E+00  4.66015E+01  2.493E-01  2.000E+01  2.000E+04 -1.685E+00
   1   16    6     1     6    2.6453E+05 -2.9411E+04   2.9394E+05  0.000E+00  0.000E+00  0.000E+00  4.61429E+01  2.679E-01  2.000E+01  2.000E+04 -1.471E+00
   1   16    7     1     7    2.9394E+05 -2.9171E+04   3.2311E+05  0.000E+00  0.000E+00  0.000E+00  4.56821E+01  2.844E-01  2.000E+01  2.000E+04 -1.459E+00
   1   16    8     1     8    3.2311E+05 -2.9256E+04   3.5237E+05  0.000E+00  0.000E+00  0.000E+00  4.52207E+01  3.002E-01  2.000E+01  2.000E+04 -1.463E+00
   1   16    9     1     9    3.5237E+05 -2.9185E+04   3.8155E+05  0.000E+00  0.000E+00  0.000E+00  4.47588E+01  3.156E-01  2.000E+01  2.000E+04 -1.459E+00
   1   16   10     1    10    3.8155E+05 -2.8970E+04   4.1052E+05  0.000E+00  0.000E+00  0.000E+00  4.42963E+01  3.303E-01  2.000E+01  2.000E+04 -1.448E+00
   1   16   11     1    11    4.1052E+05 -2.9130E+04   4.3965E+05  0.000E+00  0.000E+00  0.000E+00  4.38333E+01  3.447E-01  2.000E+01  2.000E+04 -1.456E+00
   1   16   12     1    12    4.3965E+05 -3.3484E+04   4.7313E+05  0.000E+00  0.000E+00  0.000E+00  4.33711E+01  3.597E-01  2.000E+01  2.000E+04 -1.674E+00
   1   15   13     1    13    4.7313E+05 -3.2333E+04   5.0547E+05  0.000E+00  0.000E+00  0.000E+00  4.29091E+01  3.750E-01  2.000E+01  2.000E+04 -1.617E+00
   1   14   14     1    14    5.0547E+05 -3.3256E+04   5.3872E+05  0.000E+00  0.000E+00  0.000E+00  4.24467E+01  3.899E-01  2.000E+01  2.000E+04 -1.663E+00
   1   13   15     1    15    5.3872E+05 -3.6011E+04   5.7473E+05  0.000E+00  0.000E+00  0.000E+00  4.19848E+01  4.052E-01  2.000E+01  2.000E+04 -1.801E+00
   1   12   16     1    16    5.7473E+05 -4.2749E+04   6.1748E+05  0.000E+00  0.000E+00  0.000E+00  4.15245E+01  4.222E-01  2.000E+01  2.000E+04 -2.137E+00
   1   12   17     1    17    6.1748E+05 -3.3199E+04   6.5068E+05  0.000E+00  0.000E+00  0.000E+00  4.10631E+01  4.381E-01  2.000E+01  2.000E+04 -1.660E+00
   1   12   18     1    18    6.5068E+05 -3.1583E+04   6.8227E+05  0.000E+00  0.000E+00  0.000E+00  4.05992E+01  4.514E-01  2.000E+01  2.000E+04 -1.579E+00
   1   12   19     1    19    6.8227E+05 -3.5747E+04   7.1801E+05  0.000E+00  0.000E+00  0.000E+00  4.01354E+01  4.650E-01  2.000E+01  2.000E+04 -1.787E+00
   1   13   20     1    20    7.1801E+05 -2.5415E+04   7.4343E+05  0.000E+00  0.000E+00  0.000E+00  3.96702E+01  4.771E-01  2.000E+01  2.000E+04 -1.271E+00
   1   14   21     1    21    7.4343E+05 -1.7841E+04   7.6127E+05  0.000E+00  0.000E+00  0.000E+00  3.92014E+01  4.855E-01  2.000E+01  2.000E+04 -8.920E-01
   1   14   22     1    22    7.6127E+05 -1.2398E+03   7.6251E+05  0.000E+00  0.000E+00  0.000E+00  3.87278E+01  4.892E-01  2.000E+01  2.000E+04 -6.199E-02
   1    9   30     2     1    5.0000E+04 -2.6345E+04   7.6345E+04  0.000E+00  0.000E+00  0.000E+00  4.02583E+01  1.333E-01  2.000E+01  2.000E+04 -1.317E+00
   1    9   29     2     2    7.6345E+04 -2.8755E+04   1.0510E+05  0.000E+00  0.000E+00  0.000E+00  4.00407E+01  1.657E-01  2.000E+01  2.000E+04 -1.438E+00
   1    9   28     2     3    1.0510E+05 -3.2902E+04   1.3800E+05  0.000E+00  0.000E+00  0.000E+00  3.98224E+01  1.974E-01  2.000E+01  2.000E+04 -1.645E+00
   1    9   27     2     4    1.3800E+05 -4.6689E+04   1.8469E+05  0.000E+00  0.000E+00  0.000E+00  3.96090E+01  2.340E-01  2.000E+01  2.000E+04 -2.334E+00
   1   10   26     2     5    1.8469E+05 -3.2950E+04   2.1764E+05  0.000E+00  0.000E+00  0.000E+00  3.93921E+01  2.671E-01  2.000E+01  2.000E+04 -1.648E+00
   1   11   25     2     6    2.1764E+05 -2.4819E+04   2.4246E+05  0.000E+00  0.000E+00  0.000E+00  3.91645E+01  2.895E-01  2.000E+01  2.000E+04 -1.241E+00
   1   12   24     2     7    2.4246E+05 -1.8315E+04   2.6078E+05  0.000E+00  0.000E+00  0.000E+00  3.89305E+01  3.055E-01  2.000E+01  2.000E+04 -9.158E-01
   1   13   23     2     8    2.6078E+05 -1.2884E+04   2.7366E+05  0.000E+00  0.000E+00  0.000E+00  3.86917E+01  3.167E-01  2.000E+01  2.000E+04 -6.442E-01
   1   14   22     2     9    2.7366E+05 -6.8222E+03   2.8048E+05  0.000E+00  0.000E+00  0.000E+00  3.84487E+01  3.237E-01  2.000E+01  2.000E+04 -3.411E-01
   1   14   22     3     1    1.0430E+06 -1.4841E+04   1.0578E+06  0.000E+00  0.000E+00  0.000E+00  3.80477E+01  4.922E-01  2.000E+01  2.000E+04 -7.421E-01
   1   15   23     3     2    1.0578E+06 -2.1846E+04   1.0797E+06  0.000E+00  0.000E+00  0.000E+00  3.71640E+01  4.973E-01  2.000E+01  2.000E+04 -1.092E+00
   1   15   24     3     3    1.0797E+06 -1.8634E+04   1.0983E+06  0.000E+00  0.000E+00  0.000E+00  3.62807E+01  5.029E-01  2.000E+01  2.000E+04 -9.317E-01
   1   15   25     3     4    1.0983E+06 -1.8578E+04   1.1169E+06  0.000E+00  0.000E+00  0.000E+00  3.53970E+01  5.081E-01  2.000E+01  2.000E+04 -9.289E-01
   1   15   26     3     5    1.1169E+06 -2.1571E+04   1.1385E+06  0.000E+00  0.000E+00  0.000E+00  3.45136E+01  5.136E-01  2.000E+01  2.000E+04 -1.079E+00
   1   16   27     3     6    1.1385E+06 -2.8484E+04   1.1669E+06  0.000E+00  0.000E+00  0.000E+00  3.36315E+01  5.204E-01  2.000E+01  2.000E+04 -1.424E+00
   1   17   28     3     7    1.1669E+06 -3.5542E+04   1.2025E+06  0.000E+00  0.000E+00  0.000E+00  3.27512E+01  5.290E-01  2.000E+01  2.000E+04 -1.777E+00
   1   18   29     3     8    1.2025E+06 -4.6592E+04   1.2491E+06  0.000E+00  0.000E+00  0.000E+00  3.18733E+01  5.399E-01  2.000E+01  2.000E+04 -2.330E+00
   1   18   30     3     9    1.2491E+06 -4.3316E+04   1.2924E+06  0.000E+00  0.000E+00  0.000E+00  3.09962E+01  5.517E-01  2.000E+01  2.000E+04 -2.166E+00



1
              HEAD IN LAYER   1 AT END OF TIME STEP   1 IN STRESS PERIOD   12
  ---------------------------------------------------------------------------

          1      2      3      4      5      6      7      8      9     10
         11     12     13     14     15     16     17     18     19     20
         21     22     23     24     25     26     27     28     29     30
 .........................................................................
   1  ****** ****** ****** ****** ****** ****** ****** ****** ****** ******
      ****** ****** ****** ****** ****** ****** ****** ****** ****** ******
      ****** ****** ****** ****** ****** ****** ****** ****** ****** ******
   2  ****** ****** ****** ****** ****** ****** ****** ****** ****** ******
      ****** ****** ****** ****** ****** ****** ****** ****** ****** ******
      ****** ****** ****** ****** ****** ****** ****** ****** ****** ******
   3  ****** ****** ****** ****** ****** ****** ****** ****** ****** ******
      ****** ****** ****** ****** ****** ****** ****** ****** ****** ******
      ****** ****** ****** ****** ****** ****** ****** ****** ****** ******
   4  ****** ****** ****** ****** ****** ****** ****** ****** ****** ******
      ****** ****** ****** ****** ****** ****** ****** ****** ****** ******
      ****** ****** ****** ****** ****** ****** ****** ****** ****** ******
   5  ****** ****** ****** ****** ****** ****** ****** ****** ****** ******
      ****** ****** ****** ****** ****** ****** ****** ****** ****** ******
      ****** ****** ****** ****** ****** ****** ****** ****** ****** ******
   6  ****** ****** ****** ****** ****** ****** ****** ****** ****** ******
      ****** ****** ****** ****** ****** ****** ****** ****** ****** ******
      ****** ****** ****** ****** ****** ****** ****** ****** ****** ******
   7  ****** ****** ****** ****** ****** ****** ****** ****** ****** ******
      ****** ****** ****** ****** ****** ****** ****** ****** ****** ******
      ****** ****** ****** ****** ****** ****** ****** ****** ****** ******
   8  ****** ****** ****** ****** ****** ****** ****** ****** ****** ******
      ****** ****** ****** ****** ****** ****** ****** ****** ****** ******
      ****** ****** ****** ****** ****** ****** ****** ****** ****** ******
   9  ****** ****** ****** ****** ****** ****** ****** ****** ****** ******
      ****** ****** ****** ****** ****** ****** ****** ****** ****** ******
      ****** ****** ****** ****** ****** ****** ****** ****** ****** ******
  10  ****** ****** ****** ****** ****** ****** ****** ****** ****** ******
      ****** ****** ****** ****** ****** ****** ****** ****** ****** ******
      ****** ****** ****** ****** ****** ****** ****** ****** ****** ******
  11  ****** ****** ****** ****** ****** ****** ****** ****** ****** ******
      ****** ****** ****** ****** ****** ****** ****** ****** ****** ******
      ****** ****** ****** ****** ****** ****** ****** ****** ****** ******
  12  ****** ****** ****** ****** ****** ****** ****** ****** ****** ******
      ****** ****** ****** ****** ****** ****** ****** ****** ****** ******
      ****** ****** ****** ****** ****** ****** ****** ****** ****** ******
  13  ****** ****** ****** ****** ****** ****** ****** ****** ****** ******
      ****** ****** ****** ****** ****** ****** ****** ****** ****** ******
      ****** ****** ****** ****** ****** ****** ****** ****** ****** ******
  14  ****** ****** ****** ****** ****** ****** ****** ****** ****** ******
      ****** ****** ****** ****** ****** ****** ****** ****** ****** ******
      ****** ****** ****** ****** ****** ****** ****** ****** ****** ******
  15  ****** ****** ****** ****** ****** ****** ****** ****** ****** ******
      ****** ****** ****** ****** ****** ****** ****** ****** ****** ******
      ****** ****** ****** ****** ****** ****** ****** ****** ****** ******
  16  ****** ****** ****** ****** ****** ****** ****** ****** ****** ******
      ****** ****** ****** ****** ****** ****** ****** ****** ****** ******
      ****** ****** ****** ****** ****** ****** ****** ****** ****** ******
  17  ****** ****** ****** ****** ****** ****** ****** ****** ****** ******
      ****** ****** ****** ****** ****** ****** ****** ****** ****** ******
      ****** ****** ****** ****** ****** ****** ****** ****** ****** ******
  18  ****** ****** ****** ****** ****** ****** ****** ****** ****** ******
      ****** ****** ****** ****** ****** ****** ****** ****** ****** ******
      ****** ****** ****** ****** ****** ****** ****** ****** ****** ******
  19  ****** ****** ****** ****** ****** ****** ****** ****** ****** ******
      ****** ****** ****** ****** ****** ****** ****** ****** ****** ******
      ****** ****** ****** ****** ****** ****** ****** ****** ****** ******
  20  ****** ****** ****** ****** ****** ****** ****** ****** ****** ******
      ****** ****** ****** ****** ****** ****** ****** ****** ****** ******
      ****** ****** ****** ****** ****** ****** ****** ****** ****** ******
  21  ****** ****** ****** ****** ****** ****** ****** ****** ****** ******
      ****** ****** ****** ****** ****** ****** ****** ****** ****** ******
      ****** ****** ****** ****** ****** ****** ****** ****** ****** ******
  22  ****** ****** ****** ****** ****** ****** ****** ****** ****** ******
      ****** ****** ****** ****** ****** ****** ****** ****** ****** ******
      ****** ****** ****** ****** ****** ****** ****** ****** ****** ******
  23  ****** ****** ****** ****** ****** ****** ****** ****** ****** ******
      ****** ****** ****** ****** ****** ****** ****** ****** ****** ******
      ****** ****** ****** ****** ****** ****** ****** ****** ****** ******
  24  ****** ****** ****** ****** ****** ****** ****** ****** ****** ******
      ****** ****** ****** ****** ****** ****** ****** ****** ****** ******
      ****** ****** ****** ****** ****** ****** ****** ****** ****** ******
  25  ****** ****** ****** ****** ****** ****** ****** ****** ****** ******
      ****** ****** ****** ****** ****** ****** ****** ****** ****** ******
      ****** ****** ****** ****** ****** ****** ****** ****** ****** ******

 HEAD WILL BE SAVED ON UNIT   51 AT END OF TIME STEP    1, STRESS PERIOD   12
1
  VOLUMETRIC BUDGET FOR ENTIRE MODEL AT END OF TIME STEP    1, STRESS PERIOD  12
  ------------------------------------------------------------------------------

     CUMULATIVE VOLUMES      L**3       RATES FOR THIS TIME STEP      L**3/T
     ------------------                 ------------------------

           IN:                                      IN:
           ---                                      ---
             STORAGE =    20931470.1012               STORAGE =           0.0000
       CONSTANT HEAD =  1316908007.0790         CONSTANT HEAD =     1199288.5245
               WELLS =           0.0000                 WELLS =           0.0000
            RECHARGE =    26413200.0000              RECHARGE =       27600.0000
      STREAM LEAKAGE =           0.0000        STREAM LEAKAGE =           0.0000

            TOTAL IN =  1364252677.1801              TOTAL IN =     1226888.5245

          OUT:                                     OUT:
          ----                                     ----
             STORAGE =      807454.5130               STORAGE =        1168.6457
       CONSTANT HEAD =           0.0000         CONSTANT HEAD =           0.0000
               WELLS =   115797852.5002                 WELLS =       83325.9270
            RECHARGE =           0.0000              RECHARGE =           0.0000
      STREAM LEAKAGE =  1247647375.6542        STREAM LEAKAGE =     1142393.9312

           TOTAL OUT =  1364252682.6674             TOTAL OUT =     1226888.5039

            IN - OUT =          -5.4873              IN - OUT =       2.0611E-02

 PERCENT DISCREPANCY =          -0.00     PERCENT DISCREPANCY =           0.00






         TIME SUMMARY AT END OF TIME STEP    1 IN STRESS PERIOD   12
                    SECONDS     MINUTES      HOURS       DAYS        YEARS
                    -----------------------------------------------------------
   TIME STEP LENGTH 7.86240E+06 1.31040E+05  2184.0      91.000     0.24914    
 STRESS PERIOD TIME 7.86240E+06 1.31040E+05  2184.0      91.000     0.24914    
         TOTAL TIME 9.46080E+07 1.57680E+06  26280.      1095.0      2.9979    
1

 Run end date and time (yyyy/mm/dd hh:mm:ss): 2018/10/02 16:40:42
 Elapsed run time:  0.047 Seconds

