                                  MODFLOW-2005     
      U.S. GEOLOGICAL SURVEY MODULAR FINITE-DIFFERENCE GROUND-WATER FLOW MODEL
                            VERSION 1.11.00 8/8/2013

 LIST FILE: supply2.lst
                         UNIT   10

 OPENING ..\data\supply.dis
 FILE TYPE:DIS   UNIT   11   STATUS:OLD    
 FORMAT:FORMATTED              ACCESS:SEQUENTIAL          

 OPENING ..\data\supply.ba6
 FILE TYPE:BAS6   UNIT   12   STATUS:OLD    
 FORMAT:FORMATTED              ACCESS:SEQUENTIAL          

 OPENING ..\data\supply_het.bc6
 FILE TYPE:BCF6   UNIT   13   STATUS:OLD    
 FORMAT:FORMATTED              ACCESS:SEQUENTIAL          

 OPENING ..\data\supply.rch
 FILE TYPE:RCH   UNIT   15   STATUS:OLD    
 FORMAT:FORMATTED              ACCESS:SEQUENTIAL          

 OPENING ..\data\supply2.sfr
 FILE TYPE:SFR   UNIT   16   STATUS:OLD    
 FORMAT:FORMATTED              ACCESS:SEQUENTIAL          

 OPENING ..\data\supply.oc
 FILE TYPE:OC   UNIT   17   STATUS:OLD    
 FORMAT:FORMATTED              ACCESS:SEQUENTIAL          

 OPENING ..\data\supply.pcg
 FILE TYPE:PCG   UNIT   18   STATUS:OLD    
 FORMAT:FORMATTED              ACCESS:SEQUENTIAL          

 OPENING supply2.wel
 FILE TYPE:WEL   UNIT   19   STATUS:OLD    
 FORMAT:FORMATTED              ACCESS:SEQUENTIAL          

 OPENING supply2sf.cbc
 FILE TYPE:DATA(BINARY)   UNIT   50   STATUS:UNKNOWN
 FORMAT:BINARY                 ACCESS:SEQUENTIAL          

 OPENING supply2hd.bhd
 FILE TYPE:DATA(BINARY)   UNIT   51   STATUS:UNKNOWN
 FORMAT:BINARY                 ACCESS:SEQUENTIAL          

 BAS -- BASIC PACKAGE, VERSION 7, 5/2/2005 INPUT READ FROM UNIT   12
 
 MODFLOW was compiled using uniform precision
 Precision of REAL and DOUBLE PRECISION variables:          15

 DISCRETIZATION INPUT DATA READ FROM UNIT   11
    1 LAYERS        25 ROWS        30 COLUMNS
   12 STRESS PERIOD(S) IN SIMULATION
 MODEL TIME UNIT IS DAYS
 MODEL LENGTH UNIT IS UNDEFINED
  Confining bed flag for each layer:
   0

                     DELR =   200.000    

                     DELC =   200.000    

 TOP ELEVATION OF LAYER 1 =  100.0000    

   MODEL LAYER BOTTOM EL. =   0.00000     FOR LAYER   1


 STRESS PERIOD     LENGTH       TIME STEPS     MULTIPLIER FOR DELT    SS FLAG
 ----------------------------------------------------------------------------
        1         92.00000          1                    1.500         TR
        2         91.00000          1                    1.500         TR
        3         91.00000          1                    1.500         TR
        4         91.00000          1                    1.500         TR
        5         92.00000          1                    1.500         TR
        6         91.00000          1                    1.500         TR
        7         91.00000          1                    1.500         TR
        8         91.00000          1                    1.500         TR
        9         92.00000          1                    1.500         TR
       10         91.00000          1                    1.500         TR
       11         91.00000          1                    1.500         TR
       12         91.00000          1                    1.500         TR

 TRANSIENT SIMULATION



 
 #MODOFC transient water supply sample problem                                   
 #                                                                               
 THE FREE FORMAT OPTION HAS BEEN SELECTED



                     BOUNDARY ARRAY FOR LAYER   1
 READING ON UNIT   12 WITH FORMAT: (20I4)              

 AQUIFER HEAD WILL BE SET TO   0.0000     AT ALL NO-FLOW NODES (IBOUND=0).



                       INITIAL HEAD FOR LAYER   1
 READING ON UNIT   12 WITH FORMAT: (10F13.0)           

 OUTPUT CONTROL IS SPECIFIED ONLY AT TIME STEPS FOR WHICH OUTPUT IS DESIRED
 COMPACT CELL-BY-CELL BUDGET FILES WILL BE WRITTEN
 HEAD PRINT FORMAT CODE IS  18    DRAWDOWN PRINT FORMAT CODE IS   0
 HEADS WILL BE SAVED ON UNIT   51    DRAWDOWNS WILL BE SAVED ON UNIT    0

 BCF -- BLOCK-CENTERED FLOW PACKAGE, VERSION 7, 5/2/2005
         INPUT READ FROM UNIT 13
 TRANSIENT SIMULATION
 HEAD AT CELLS THAT CONVERT TO DRY=   0.0000    
 WETTING CAPABILITY IS NOT ACTIVE
      LAYER  LAYER-TYPE CODE     INTERBLOCK T
      --------------------------------------------
         1            0          0 -- HARMONIC    

 COLUMN TO ROW ANISOTROPY =  1.000000    

     PRIMARY STORAGE COEF =  5.000000E-02 FOR LAYER   1



               TRANSMIS. ALONG ROWS FOR LAYER   1
 READING ON UNIT   13 WITH FORMAT: (FREE)              

 WEL -- WELL PACKAGE, VERSION 7, 5/2/2005 INPUT READ FROM UNIT   19
 # Well package input file written by MMProc
 No named parameters
 MAXIMUM OF      4 ACTIVE WELLS AT ONE TIME


     0 Well parameters

 RCH -- RECHARGE PACKAGE, VERSION 7, 5/2/2005 INPUT READ FROM UNIT   15
 No named parameters
 OPTION 1 -- RECHARGE TO TOP LAYER


     0 Recharge parameters

 SFR7 -- STREAMFLOW ROUTING PACKAGE, VERSION 1.0.7, 2013-01-15
         INPUT READ FROM UNIT  16
 #  Supply2 test problem for GWM-VI
 #  The eighth entry in the first data line is ISTCB2 -
 #    Setting this to a negative number indicates that
 #    streamflows out of the reach will be saved to a
 #    binary file.  The absolute value of ISTCB2 is the
 #    unit to which unformatted flows will be written.
 #
 No named parameters
 Segment information will not be 
 read by reach
 No named parameters
 No specifed inflow files


 NUMBER OF STREAM REACHES IS   40

 NUMBER OF STREAM SEGMENTS IS    3

 NUMBER OF STREAM PARAMETERS IS    0

 NUMBER OF STREAM SEGMENTS DEFINED USING PARAMETERS IS              0

 MAXIMUM ERROR FOR STREAM LEAKAGE RATES IS  1.00E-04

 CONSTANT FOR MANNINGS EQUATION IS  1.2839E+05





   STREAM NETWORK DESCRIPTION: 

   LAYER    ROW    COL   SEGMENT   REACH     LENGTH
                          NUMBER   NUMBER    IN CELL        
   --------------------------------------------------
      1     13      1       1        1    2.0000E+02
      1     13      2       1        2    2.0000E+02
      1     14      3       1        3    2.0000E+02
      1     15      4       1        4    2.0000E+02
      1     16      5       1        5    2.0000E+02
      1     16      6       1        6    2.0000E+02
      1     16      7       1        7    2.0000E+02
      1     16      8       1        8    2.0000E+02
      1     16      9       1        9    2.0000E+02
      1     16     10       1       10    2.0000E+02
      1     16     11       1       11    2.0000E+02
      1     16     12       1       12    2.0000E+02
      1     15     13       1       13    2.0000E+02
      1     14     14       1       14    2.0000E+02
      1     13     15       1       15    2.0000E+02
      1     12     16       1       16    2.0000E+02
      1     12     17       1       17    2.0000E+02
      1     12     18       1       18    2.0000E+02
      1     12     19       1       19    2.0000E+02
      1     13     20       1       20    2.0000E+02
      1     14     21       1       21    2.0000E+02
      1     14     22       1       22    2.0000E+02
      1      9     30       2        1    2.0000E+02
      1      9     29       2        2    2.0000E+02
      1      9     28       2        3    2.0000E+02
      1      9     27       2        4    2.0000E+02
      1     10     26       2        5    2.0000E+02
      1     11     25       2        6    2.0000E+02
      1     12     24       2        7    2.0000E+02
      1     13     23       2        8    2.0000E+02
      1     14     22       2        9    2.0000E+02
      1     14     22       3        1    2.0000E+02
      1     15     23       3        2    2.0000E+02
      1     15     24       3        3    2.0000E+02
      1     15     25       3        4    2.0000E+02
      1     15     26       3        5    2.0000E+02
      1     16     27       3        6    2.0000E+02
      1     17     28       3        7    2.0000E+02
      1     18     29       3        8    2.0000E+02
      1     18     30       3        9    2.0000E+02




 PCG -- CONJUGATE-GRADIENT SOLUTION PACKAGE, VERSION 7, 5/2/2005
 MAXIMUM OF    500 CALLS OF SOLUTION ROUTINE
 MAXIMUM OF      5 INTERNAL ITERATIONS PER CALL TO SOLUTION ROUTINE
 MATRIX PRECONDITIONING TYPE :    1



                                    SOLUTION BY THE CONJUGATE-GRADIENT METHOD
                                   -------------------------------------------
                    MAXIMUM NUMBER OF CALLS TO PCG ROUTINE =      500
                        MAXIMUM ITERATIONS PER CALL TO PCG =        5
                               MATRIX PRECONDITIONING TYPE =        1
        RELAXATION FACTOR (ONLY USED WITH PRECOND. TYPE 1) =    0.10000E+01
 PARAMETER OF POLYNOMIAL PRECOND. = 2 (2) OR IS CALCULATED :        0
                         HEAD CHANGE CRITERION FOR CLOSURE =    0.10000E-05
                     RESIDUAL CHANGE CRITERION FOR CLOSURE =    0.10000E+01
            PCG HEAD AND RESIDUAL CHANGE PRINTOUT INTERVAL =        1
     PRINTING FROM SOLVER IS LIMITED(1) OR SUPPRESSED (>1) =        1
                            STEADY-STATE DAMPING PARAMETER =    0.10000E+01
                               TRANSIENT DAMPING PARAMETER =    0.10000E+01
1
                            STRESS PERIOD NO.    1, LENGTH =   92.00000    
                            -----------------------------------------------

                              NUMBER OF TIME STEPS =     1

                               MULTIPLIER FOR DELT =     1.500

                            INITIAL TIME STEP SIZE =   92.00000    

 WELL NO.  LAYER   ROW   COL   STRESS RATE         
 --------------------------------------------------
      1      1     15      4     -0.1117E+05
      2      1     11     22     -0.1086E+05
      3      1     18     29     -0.4636E+05
      4      1      5     18     -0.1058E+05

      4 WELLS

                 RECHARGE =  5.000000E-04



 CLASSIFICATION & COUNT OF STREAM SEGMENTS BASED ON SOURCE OF INFLOW:

                HEADWATER     DIVERSION     RECEIVES TRIBUTARY FLOW
                ---------     ---------     -----------------------
                     2              0               1



                    INPUT DATA FOR EACH STREAM SEGMENT
 ---------------------------------------------------------------------------------------------

 SEGMENT    SEG.     INFLOW   OVERLAND   STREAM    STREAM   ICALC  OUTFLOW  DIVERSION PRIORITY
    NO.    LENGTH     RATE     RUNOFF      ET       PPT.    METH.  TO SEG.  FROM SEG.    NO.

      1  4.400E+03 1.000E+05 0.000E+00 0.000E+00 0.000E+00    1        3        0        0
      2  1.800E+03 5.000E+04 0.000E+00 0.000E+00 0.000E+00    1        3        0        0
      3  1.800E+03 0.000E+00 0.000E+00 0.000E+00 0.000E+00    1        0        0        0


         STREAMBED PROPERTIES AND STREAM DIMENSIONS

 SEGMENT     BED HYD. COND.      BED THICKNESS     ELEV.-TOP OF BED     WIDTH OF STREAM     DEPTH OF STREAM    STREAM ROUGHNESS
    No.     UPPER     LOWER     UPPER     LOWER     UPPER     LOWER     UPPER     LOWER     UPPER     LOWER   CHANNEL      BANK

     1  5.000E+00 5.000E+00 1.000E+00 1.000E+00 4.850E+01 3.800E+01 2.000E+01 2.000E+01                     5.000E-02
     2  5.000E+00 5.000E+00 1.000E+00 1.000E+00 4.025E+01 3.800E+01 2.000E+01 2.000E+01                     5.000E-02
     3  5.000E+00 5.000E+00 1.000E+00 1.000E+00 3.800E+01 3.000E+01 2.000E+01 2.000E+01                     5.000E-02



 
 SOLVING FOR HEAD 


     9 CALLS TO PCG ROUTINE FOR TIME STEP   1 IN STRESS PERIOD    1
    39 TOTAL ITERATIONS

 OUTPUT CONTROL FOR STRESS PERIOD    1   TIME STEP    1
    SAVE BUDGET
    SAVE HEAD FOR ALL LAYERS
    PRINT HEAD FOR ALL LAYERS
 UBDSV2 SAVING "STREAMFLOW OUT  " ON UNIT  50 AT TIME STEP  1, STRESS PERIOD   1



 STREAM LISTING     PERIOD      1   STEP        1

 LAYER ROW COL. STREAM  RCH.  FLOW INTO     FLOW TO   FLOW OUT OF   OVRLND.     DIRECT     STREAM       STREAM     STREAM     STREAM   STREAMBED  STREAMBED
                SEG.NO.  NO.  STRM. RCH.    AQUIFER    STRM. RCH.    RUNOFF     PRECIP       ET          HEAD       DEPTH      WIDTH   CONDCTNC.   GRADIENT

   1   13    1     1     1    1.0000E+05 -6.1110E+03   1.0611E+05  0.000E+00  0.000E+00  0.000E+00  4.84087E+01  1.473E-01  2.000E+01  2.000E+04 -3.055E-01
   1   13    2     1     2    1.0611E+05 -7.5788E+03   1.1369E+05  0.000E+00  0.000E+00  0.000E+00  4.79372E+01  1.531E-01  2.000E+01  2.000E+04 -3.789E-01
   1   14    3     1     3    1.1369E+05 -2.1841E+03   1.1587E+05  0.000E+00  0.000E+00  0.000E+00  4.74639E+01  1.571E-01  2.000E+01  2.000E+04 -1.092E-01
   1   15    4     1     4    1.1587E+05  8.7755E+03   1.0710E+05  0.000E+00  0.000E+00  0.000E+00  4.69839E+01  1.544E-01  2.000E+01  2.000E+04  4.388E-01
   1   16    5     1     5    1.0710E+05 -7.1507E+03   1.1425E+05  0.000E+00  0.000E+00  0.000E+00  4.65060E+01  1.537E-01  2.000E+01  2.000E+04 -3.575E-01
   1   16    6     1     6    1.1425E+05 -4.3005E+03   1.1855E+05  0.000E+00  0.000E+00  0.000E+00  4.60335E+01  1.585E-01  2.000E+01  2.000E+04 -2.150E-01
   1   16    7     1     7    1.1855E+05 -4.1394E+03   1.2269E+05  0.000E+00  0.000E+00  0.000E+00  4.55596E+01  1.619E-01  2.000E+01  2.000E+04 -2.070E-01
   1   16    8     1     8    1.2269E+05 -4.1000E+03   1.2679E+05  0.000E+00  0.000E+00  0.000E+00  4.50856E+01  1.652E-01  2.000E+01  2.000E+04 -2.050E-01
   1   16    9     1     9    1.2679E+05 -4.0904E+03   1.3088E+05  0.000E+00  0.000E+00  0.000E+00  4.46116E+01  1.684E-01  2.000E+01  2.000E+04 -2.045E-01
   1   16   10     1    10    1.3088E+05 -4.0887E+03   1.3497E+05  0.000E+00  0.000E+00  0.000E+00  4.41375E+01  1.716E-01  2.000E+01  2.000E+04 -2.044E-01
   1   16   11     1    11    1.3497E+05 -4.1252E+03   1.3909E+05  0.000E+00  0.000E+00  0.000E+00  4.36634E+01  1.747E-01  2.000E+01  2.000E+04 -2.063E-01
   1   16   12     1    12    1.3909E+05 -7.0047E+03   1.4610E+05  0.000E+00  0.000E+00  0.000E+00  4.31903E+01  1.790E-01  2.000E+01  2.000E+04 -3.502E-01
   1   15   13     1    13    1.4610E+05 -7.2939E+03   1.5339E+05  0.000E+00  0.000E+00  0.000E+00  4.27184E+01  1.843E-01  2.000E+01  2.000E+04 -3.647E-01
   1   14   14     1    14    1.5339E+05 -7.7497E+03   1.6114E+05  0.000E+00  0.000E+00  0.000E+00  4.22466E+01  1.898E-01  2.000E+01  2.000E+04 -3.875E-01
   1   13   15     1    15    1.6114E+05 -8.0170E+03   1.6916E+05  0.000E+00  0.000E+00  0.000E+00  4.17750E+01  1.955E-01  2.000E+01  2.000E+04 -4.009E-01
   1   12   16     1    16    1.6916E+05 -8.4342E+03   1.7759E+05  0.000E+00  0.000E+00  0.000E+00  4.13035E+01  2.012E-01  2.000E+01  2.000E+04 -4.217E-01
   1   12   17     1    17    1.7759E+05 -5.9250E+03   1.8352E+05  0.000E+00  0.000E+00  0.000E+00  4.08312E+01  2.062E-01  2.000E+01  2.000E+04 -2.962E-01
   1   12   18     1    18    1.8352E+05 -5.6490E+03   1.8917E+05  0.000E+00  0.000E+00  0.000E+00  4.03579E+01  2.101E-01  2.000E+01  2.000E+04 -2.824E-01
   1   12   19     1    19    1.8917E+05 -6.4089E+03   1.9558E+05  0.000E+00  0.000E+00  0.000E+00  3.98846E+01  2.142E-01  2.000E+01  2.000E+04 -3.204E-01
   1   13   20     1    20    1.9558E+05 -5.6608E+03   2.0124E+05  0.000E+00  0.000E+00  0.000E+00  3.94114E+01  2.182E-01  2.000E+01  2.000E+04 -2.830E-01
   1   14   21     1    21    2.0124E+05 -5.8812E+03   2.0712E+05  0.000E+00  0.000E+00  0.000E+00  3.89379E+01  2.220E-01  2.000E+01  2.000E+04 -2.941E-01
   1   14   22     1    22    2.0712E+05  3.8918E+03   2.0323E+05  0.000E+00  0.000E+00  0.000E+00  3.84613E+01  2.226E-01  2.000E+01  2.000E+04  1.946E-01
   1    9   30     2     1    5.0000E+04 -4.7378E+03   5.4738E+04  0.000E+00  0.000E+00  0.000E+00  4.02441E+01  1.191E-01  2.000E+01  2.000E+04 -2.369E-01
   1    9   29     2     2    5.4738E+04 -5.0238E+03   5.9762E+04  0.000E+00  0.000E+00  0.000E+00  4.00007E+01  1.257E-01  2.000E+01  2.000E+04 -2.512E-01
   1    9   28     2     3    5.9762E+04 -5.2792E+03   6.5041E+04  0.000E+00  0.000E+00  0.000E+00  3.97573E+01  1.323E-01  2.000E+01  2.000E+04 -2.640E-01
   1    9   27     2     4    6.5041E+04 -7.8813E+03   7.2922E+04  0.000E+00  0.000E+00  0.000E+00  3.95155E+01  1.405E-01  2.000E+01  2.000E+04 -3.941E-01
   1   10   26     2     5    7.2922E+04 -6.7109E+03   7.9633E+04  0.000E+00  0.000E+00  0.000E+00  3.92743E+01  1.493E-01  2.000E+01  2.000E+04 -3.355E-01
   1   11   25     2     6    7.9633E+04 -5.6246E+03   8.5257E+04  0.000E+00  0.000E+00  0.000E+00  3.90314E+01  1.564E-01  2.000E+01  2.000E+04 -2.812E-01
   1   12   24     2     7    8.5257E+04 -4.2353E+03   8.9493E+04  0.000E+00  0.000E+00  0.000E+00  3.87870E+01  1.620E-01  2.000E+01  2.000E+04 -2.118E-01
   1   13   23     2     8    8.9493E+04 -1.2522E+03   9.0745E+04  0.000E+00  0.000E+00  0.000E+00  3.85400E+01  1.650E-01  2.000E+01  2.000E+04 -6.261E-02
   1   14   22     2     9    9.0745E+04  4.7475E+02   9.0270E+04  0.000E+00  0.000E+00  0.000E+00  3.82904E+01  1.654E-01  2.000E+01  2.000E+04  2.374E-02
   1   14   22     3     1    2.9350E+05 -9.5974E+03   3.0309E+05  0.000E+00  0.000E+00  0.000E+00  3.77868E+01  2.313E-01  2.000E+01  2.000E+04 -4.799E-01
   1   15   23     3     2    3.0309E+05 -1.9825E+03   3.0508E+05  0.000E+00  0.000E+00  0.000E+00  3.69006E+01  2.339E-01  2.000E+01  2.000E+04 -9.913E-02
   1   15   24     3     3    3.0508E+05 -1.5250E+03   3.0660E+05  0.000E+00  0.000E+00  0.000E+00  3.60125E+01  2.347E-01  2.000E+01  2.000E+04 -7.625E-02
   1   15   25     3     4    3.0660E+05 -1.5717E+03   3.0817E+05  0.000E+00  0.000E+00  0.000E+00  3.51243E+01  2.355E-01  2.000E+01  2.000E+04 -7.858E-02
   1   15   26     3     5    3.0817E+05 -1.8536E+03   3.1003E+05  0.000E+00  0.000E+00  0.000E+00  3.42362E+01  2.362E-01  2.000E+01  2.000E+04 -9.268E-02
   1   16   27     3     6    3.1003E+05 -2.0378E+03   3.1206E+05  0.000E+00  0.000E+00  0.000E+00  3.33482E+01  2.371E-01  2.000E+01  2.000E+04 -1.019E-01
   1   17   28     3     7    3.1206E+05 -2.5238E+03   3.1459E+05  0.000E+00  0.000E+00  0.000E+00  3.24604E+01  2.382E-01  2.000E+01  2.000E+04 -1.262E-01
   1   18   29     3     8    3.1459E+05  2.4662E+04   2.8993E+05  0.000E+00  0.000E+00  0.000E+00  3.15664E+01  2.331E-01  2.000E+01  2.000E+04  1.233E+00
   1   18   30     3     9    2.8993E+05 -5.8292E+02   2.9051E+05  0.000E+00  0.000E+00  0.000E+00  3.06719E+01  2.275E-01  2.000E+01  2.000E+04 -2.915E-02



1
              HEAD IN LAYER   1 AT END OF TIME STEP   1 IN STRESS PERIOD    1
  ---------------------------------------------------------------------------

          1      2      3      4      5      6      7      8      9     10
         11     12     13     14     15     16     17     18     19     20
         21     22     23     24     25     26     27     28     29     30
 .........................................................................
   1  ****** ****** ****** ****** ****** ****** ****** ****** ****** ******
      ****** ****** ****** ****** ****** ****** ****** ****** ****** ******
      ****** ****** ****** ****** ****** ****** ****** ****** ****** ******
   2  ****** ****** ****** ****** ****** ****** ****** ****** ****** ******
      ****** ****** ****** ****** ****** ****** ****** ****** ****** ******
      ****** ****** ****** ****** ****** ****** ****** ****** ****** ******
   3  ****** ****** ****** ****** ****** ****** ****** ****** ****** ******
      ****** ****** ****** ****** ****** ****** ****** ****** ****** ******
      ****** ****** ****** ****** ****** ****** ****** ****** ****** ******
   4  ****** ****** ****** ****** ****** ****** ****** ****** ****** ******
      ****** ****** ****** ****** ****** ****** ****** ****** ****** ******
      ****** ****** ****** ****** ****** ****** ****** ****** ****** ******
   5  ****** ****** ****** ****** ****** ****** ****** ****** ****** ******
      ****** ****** ****** ****** ****** ****** ****** ****** ****** ******
      ****** ****** ****** ****** ****** ****** ****** ****** ****** ******
   6  ****** ****** ****** ****** ****** ****** ****** ****** ****** ******
      ****** ****** ****** ****** ****** ****** ****** ****** ****** ******
      ****** ****** ****** ****** ****** ****** ****** ****** ****** ******
   7  ****** ****** ****** ****** ****** ****** ****** ****** ****** ******
      ****** ****** ****** ****** ****** ****** ****** ****** ****** ******
      ****** ****** ****** ****** ****** ****** ****** ****** ****** ******
   8  ****** ****** ****** ****** ****** ****** ****** ****** ****** ******
      ****** ****** ****** ****** ****** ****** ****** ****** ****** ******
      ****** ****** ****** ****** ****** ****** ****** ****** ****** ******
   9  ****** ****** ****** ****** ****** ****** ****** ****** ****** ******
      ****** ****** ****** ****** ****** ****** ****** ****** ****** ******
      ****** ****** ****** ****** ****** ****** ****** ****** ****** ******
  10  ****** ****** ****** ****** ****** ****** ****** ****** ****** ******
      ****** ****** ****** ****** ****** ****** ****** ****** ****** ******
      ****** ****** ****** ****** ****** ****** ****** ****** ****** ******
  11  ****** ****** ****** ****** ****** ****** ****** ****** ****** ******
      ****** ****** ****** ****** ****** ****** ****** ****** ****** ******
      ****** ****** ****** ****** ****** ****** ****** ****** ****** ******
  12  ****** ****** ****** ****** ****** ****** ****** ****** ****** ******
      ****** ****** ****** ****** ****** ****** ****** ****** ****** ******
      ****** ****** ****** ****** ****** ****** ****** ****** ****** ******
  13  ****** ****** ****** ****** ****** ****** ****** ****** ****** ******
      ****** ****** ****** ****** ****** ****** ****** ****** ****** ******
      ****** ****** ****** ****** ****** ****** ****** ****** ****** ******
  14  ****** ****** ****** ****** ****** ****** ****** ****** ****** ******
      ****** ****** ****** ****** ****** ****** ****** ****** ****** ******
      ****** ****** ****** ****** ****** ****** ****** ****** ****** ******
  15  ****** ****** ****** ****** ****** ****** ****** ****** ****** ******
      ****** ****** ****** ****** ****** ****** ****** ****** ****** ******
      ****** ****** ****** ****** ****** ****** ****** ****** ****** ******
  16  ****** ****** ****** ****** ****** ****** ****** ****** ****** ******
      ****** ****** ****** ****** ****** ****** ****** ****** ****** ******
      ****** ****** ****** ****** ****** ****** ****** ****** ****** ******
  17  ****** ****** ****** ****** ****** ****** ****** ****** ****** ******
      ****** ****** ****** ****** ****** ****** ****** ****** ****** ******
      ****** ****** ****** ****** ****** ****** ****** ****** ****** ******
  18  ****** ****** ****** ****** ****** ****** ****** ****** ****** ******
      ****** ****** ****** ****** ****** ****** ****** ****** ****** ******
      ****** ****** ****** ****** ****** ****** ****** ****** ****** ******
  19  ****** ****** ****** ****** ****** ****** ****** ****** ****** ******
      ****** ****** ****** ****** ****** ****** ****** ****** ****** ******
      ****** ****** ****** ****** ****** ****** ****** ****** ****** ******
  20  ****** ****** ****** ****** ****** ****** ****** ****** ****** ******
      ****** ****** ****** ****** ****** ****** ****** ****** ****** ******
      ****** ****** ****** ****** ****** ****** ****** ****** ****** ******
  21  ****** ****** ****** ****** ****** ****** ****** ****** ****** ******
      ****** ****** ****** ****** ****** ****** ****** ****** ****** ******
      ****** ****** ****** ****** ****** ****** ****** ****** ****** ******
  22  ****** ****** ****** ****** ****** ****** ****** ****** ****** ******
      ****** ****** ****** ****** ****** ****** ****** ****** ****** ******
      ****** ****** ****** ****** ****** ****** ****** ****** ****** ******
  23  ****** ****** ****** ****** ****** ****** ****** ****** ****** ******
      ****** ****** ****** ****** ****** ****** ****** ****** ****** ******
      ****** ****** ****** ****** ****** ****** ****** ****** ****** ******
  24  ****** ****** ****** ****** ****** ****** ****** ****** ****** ******
      ****** ****** ****** ****** ****** ****** ****** ****** ****** ******
      ****** ****** ****** ****** ****** ****** ****** ****** ****** ******
  25  ****** ****** ****** ****** ****** ****** ****** ****** ****** ******
      ****** ****** ****** ****** ****** ****** ****** ****** ****** ******
      ****** ****** ****** ****** ****** ****** ****** ****** ****** ******

 HEAD WILL BE SAVED ON UNIT   51 AT END OF TIME STEP    1, STRESS PERIOD    1
1
  VOLUMETRIC BUDGET FOR ENTIRE MODEL AT END OF TIME STEP    1, STRESS PERIOD   1
  ------------------------------------------------------------------------------

     CUMULATIVE VOLUMES      L**3       RATES FOR THIS TIME STEP      L**3/T
     ------------------                 ------------------------

           IN:                                      IN:
           ---                                      ---
             STORAGE =    17746574.9318               STORAGE =      192897.5536
       CONSTANT HEAD =     1175689.5920         CONSTANT HEAD =       12779.2347
               WELLS =           0.0000                 WELLS =           0.0000
            RECHARGE =     1269600.0000              RECHARGE =       13800.0000
      STREAM LEAKAGE =     3477954.9898        STREAM LEAKAGE =       37803.8586

            TOTAL IN =    23669819.5135              TOTAL IN =      257280.6469

          OUT:                                     OUT:
          ----                                     ----
             STORAGE =           0.0000               STORAGE =           0.0000
       CONSTANT HEAD =           0.0000         CONSTANT HEAD =           0.0000
               WELLS =     7265030.7963                 WELLS =       78967.7260
            RECHARGE =           0.0000              RECHARGE =           0.0000
      STREAM LEAKAGE =    16404789.2397        STREAM LEAKAGE =      178312.9265

           TOTAL OUT =    23669820.0361             TOTAL OUT =      257280.6526

            IN - OUT =          -0.5225              IN - OUT =      -5.6797E-03

 PERCENT DISCREPANCY =          -0.00     PERCENT DISCREPANCY =          -0.00






         TIME SUMMARY AT END OF TIME STEP    1 IN STRESS PERIOD    1
                    SECONDS     MINUTES      HOURS       DAYS        YEARS
                    -----------------------------------------------------------
   TIME STEP LENGTH 7.94880E+06 1.32480E+05  2208.0      92.000     0.25188    
 STRESS PERIOD TIME 7.94880E+06 1.32480E+05  2208.0      92.000     0.25188    
         TOTAL TIME 7.94880E+06 1.32480E+05  2208.0      92.000     0.25188    
1
1
                            STRESS PERIOD NO.    2, LENGTH =   91.00000    
                            -----------------------------------------------

                              NUMBER OF TIME STEPS =     1

                               MULTIPLIER FOR DELT =     1.500

                            INITIAL TIME STEP SIZE =   91.00000    

 WELL NO.  LAYER   ROW   COL   STRESS RATE         
 --------------------------------------------------
      1      1     15      4     -0.1117E+05
      2      1     11     22     -0.1086E+05
      3      1     18     29     -0.4636E+05
      4      1      5     18     -0.1058E+05

      4 WELLS

                 RECHARGE =  2.000000E-03

 REUSING STREAM SEGMENT DATA FROM LAST STRESS PERIOD
 
 SOLVING FOR HEAD 


     8 CALLS TO PCG ROUTINE FOR TIME STEP   1 IN STRESS PERIOD    2
    32 TOTAL ITERATIONS

 OUTPUT CONTROL FOR STRESS PERIOD    2   TIME STEP    1
    SAVE BUDGET
    SAVE HEAD FOR ALL LAYERS
    PRINT HEAD FOR ALL LAYERS
 UBDSV2 SAVING "STREAMFLOW OUT  " ON UNIT  50 AT TIME STEP  1, STRESS PERIOD   2



 STREAM LISTING     PERIOD      2   STEP        1

 LAYER ROW COL. STREAM  RCH.  FLOW INTO     FLOW TO   FLOW OUT OF   OVRLND.     DIRECT     STREAM       STREAM     STREAM     STREAM   STREAMBED  STREAMBED
                SEG.NO.  NO.  STRM. RCH.    AQUIFER    STRM. RCH.    RUNOFF     PRECIP       ET          HEAD       DEPTH      WIDTH   CONDCTNC.   GRADIENT

   1   13    1     1     1    1.0000E+05 -3.9826E+03   1.0398E+05  0.000E+00  0.000E+00  0.000E+00  4.84077E+01  1.464E-01  2.000E+01  2.000E+04 -1.991E-01
   1   13    2     1     2    1.0398E+05 -5.2416E+03   1.0922E+05  0.000E+00  0.000E+00  0.000E+00  4.79344E+01  1.503E-01  2.000E+01  2.000E+04 -2.621E-01
   1   14    3     1     3    1.0922E+05 -1.0984E+03   1.1032E+05  0.000E+00  0.000E+00  0.000E+00  4.74598E+01  1.530E-01  2.000E+01  2.000E+04 -5.492E-02
   1   15    4     1     4    1.1032E+05  9.9169E+03   1.0041E+05  0.000E+00  0.000E+00  0.000E+00  4.69788E+01  1.493E-01  2.000E+01  2.000E+04  4.958E-01
   1   16    5     1     5    1.0041E+05 -4.2173E+03   1.0462E+05  0.000E+00  0.000E+00  0.000E+00  4.64991E+01  1.468E-01  2.000E+01  2.000E+04 -2.109E-01
   1   16    6     1     6    1.0462E+05 -2.5045E+03   1.0713E+05  0.000E+00  0.000E+00  0.000E+00  4.60247E+01  1.497E-01  2.000E+01  2.000E+04 -1.252E-01
   1   16    7     1     7    1.0713E+05 -2.4152E+03   1.0954E+05  0.000E+00  0.000E+00  0.000E+00  4.55495E+01  1.518E-01  2.000E+01  2.000E+04 -1.208E-01
   1   16    8     1     8    1.0954E+05 -2.3883E+03   1.1193E+05  0.000E+00  0.000E+00  0.000E+00  4.50742E+01  1.538E-01  2.000E+01  2.000E+04 -1.194E-01
   1   16    9     1     9    1.1193E+05 -2.3692E+03   1.1430E+05  0.000E+00  0.000E+00  0.000E+00  4.45989E+01  1.558E-01  2.000E+01  2.000E+04 -1.185E-01
   1   16   10     1    10    1.1430E+05 -2.3464E+03   1.1665E+05  0.000E+00  0.000E+00  0.000E+00  4.41236E+01  1.577E-01  2.000E+01  2.000E+04 -1.173E-01
   1   16   11     1    11    1.1665E+05 -2.3541E+03   1.1900E+05  0.000E+00  0.000E+00  0.000E+00  4.36482E+01  1.596E-01  2.000E+01  2.000E+04 -1.177E-01
   1   16   12     1    12    1.1900E+05 -4.1278E+03   1.2313E+05  0.000E+00  0.000E+00  0.000E+00  4.31736E+01  1.622E-01  2.000E+01  2.000E+04 -2.064E-01
   1   15   13     1    13    1.2313E+05 -4.0474E+03   1.2718E+05  0.000E+00  0.000E+00  0.000E+00  4.26996E+01  1.655E-01  2.000E+01  2.000E+04 -2.024E-01
   1   14   14     1    14    1.2718E+05 -4.3572E+03   1.3153E+05  0.000E+00  0.000E+00  0.000E+00  4.22256E+01  1.688E-01  2.000E+01  2.000E+04 -2.179E-01
   1   13   15     1    15    1.3153E+05 -4.5839E+03   1.3612E+05  0.000E+00  0.000E+00  0.000E+00  4.17518E+01  1.723E-01  2.000E+01  2.000E+04 -2.292E-01
   1   12   16     1    16    1.3612E+05 -5.0710E+03   1.4119E+05  0.000E+00  0.000E+00  0.000E+00  4.12783E+01  1.760E-01  2.000E+01  2.000E+04 -2.535E-01
   1   12   17     1    17    1.4119E+05 -3.2664E+03   1.4445E+05  0.000E+00  0.000E+00  0.000E+00  4.08041E+01  1.791E-01  2.000E+01  2.000E+04 -1.633E-01
   1   12   18     1    18    1.4445E+05 -2.9655E+03   1.4742E+05  0.000E+00  0.000E+00  0.000E+00  4.03292E+01  1.815E-01  2.000E+01  2.000E+04 -1.483E-01
   1   12   19     1    19    1.4742E+05 -2.9531E+03   1.5037E+05  0.000E+00  0.000E+00  0.000E+00  3.98541E+01  1.837E-01  2.000E+01  2.000E+04 -1.477E-01
   1   13   20     1    20    1.5037E+05 -2.3531E+03   1.5273E+05  0.000E+00  0.000E+00  0.000E+00  3.93788E+01  1.856E-01  2.000E+01  2.000E+04 -1.177E-01
   1   14   21     1    21    1.5273E+05 -3.0869E+03   1.5581E+05  0.000E+00  0.000E+00  0.000E+00  3.89035E+01  1.876E-01  2.000E+01  2.000E+04 -1.543E-01
   1   14   22     1    22    1.5581E+05  4.6885E+03   1.5112E+05  0.000E+00  0.000E+00  0.000E+00  3.84257E+01  1.870E-01  2.000E+01  2.000E+04  2.344E-01
   1    9   30     2     1    5.0000E+04 -1.9318E+03   5.1932E+04  0.000E+00  0.000E+00  0.000E+00  4.02422E+01  1.172E-01  2.000E+01  2.000E+04 -9.659E-02
   1    9   29     2     2    5.1932E+04 -2.2271E+03   5.4159E+04  0.000E+00  0.000E+00  0.000E+00  3.99950E+01  1.200E-01  2.000E+01  2.000E+04 -1.114E-01
   1    9   28     2     3    5.4159E+04 -2.4867E+03   5.6646E+04  0.000E+00  0.000E+00  0.000E+00  3.97482E+01  1.232E-01  2.000E+01  2.000E+04 -1.243E-01
   1    9   27     2     4    5.6646E+04 -4.2039E+03   6.0849E+04  0.000E+00  0.000E+00  0.000E+00  3.95026E+01  1.276E-01  2.000E+01  2.000E+04 -2.102E-01
   1   10   26     2     5    6.0849E+04 -2.8753E+03   6.3725E+04  0.000E+00  0.000E+00  0.000E+00  3.92572E+01  1.322E-01  2.000E+01  2.000E+04 -1.438E-01
   1   11   25     2     6    6.3725E+04 -1.9103E+03   6.5635E+04  0.000E+00  0.000E+00  0.000E+00  3.90102E+01  1.352E-01  2.000E+01  2.000E+04 -9.551E-02
   1   12   24     2     7    6.5635E+04 -8.2442E+02   6.6460E+04  0.000E+00  0.000E+00  0.000E+00  3.87619E+01  1.369E-01  2.000E+01  2.000E+04 -4.122E-02
   1   13   23     2     8    6.6460E+04 -1.5432E+02   6.6614E+04  0.000E+00  0.000E+00  0.000E+00  3.85125E+01  1.375E-01  2.000E+01  2.000E+04 -7.716E-03
   1   14   22     2     9    6.6614E+04  1.4100E+03   6.5204E+04  0.000E+00  0.000E+00  0.000E+00  3.82618E+01  1.368E-01  2.000E+01  2.000E+04  7.050E-02
   1   14   22     3     1    2.1633E+05 -8.8532E+03   2.2518E+05  0.000E+00  0.000E+00  0.000E+00  3.77486E+01  1.930E-01  2.000E+01  2.000E+04 -4.427E-01
   1   15   23     3     2    2.2518E+05 -1.0400E+03   2.2622E+05  0.000E+00  0.000E+00  0.000E+00  3.68623E+01  1.956E-01  2.000E+01  2.000E+04 -5.200E-02
   1   15   24     3     3    2.2622E+05 -6.5334E+02   2.2687E+05  0.000E+00  0.000E+00  0.000E+00  3.59738E+01  1.961E-01  2.000E+01  2.000E+04 -3.267E-02
   1   15   25     3     4    2.2687E+05 -6.5369E+02   2.2753E+05  0.000E+00  0.000E+00  0.000E+00  3.50853E+01  1.964E-01  2.000E+01  2.000E+04 -3.268E-02
   1   15   26     3     5    2.2753E+05 -7.2006E+02   2.2825E+05  0.000E+00  0.000E+00  0.000E+00  3.41968E+01  1.968E-01  2.000E+01  2.000E+04 -3.600E-02
   1   16   27     3     6    2.2825E+05 -6.9887E+02   2.2895E+05  0.000E+00  0.000E+00  0.000E+00  3.33082E+01  1.971E-01  2.000E+01  2.000E+04 -3.494E-02
   1   17   28     3     7    2.2895E+05  2.3468E+03   2.2660E+05  0.000E+00  0.000E+00  0.000E+00  3.24189E+01  1.967E-01  2.000E+01  2.000E+04  1.173E-01
   1   18   29     3     8    2.2660E+05  2.3797E+04   2.0280E+05  0.000E+00  0.000E+00  0.000E+00  3.15232E+01  1.898E-01  2.000E+01  2.000E+04  1.190E+00
   1   18   30     3     9    2.0280E+05  4.2731E+03   1.9853E+05  0.000E+00  0.000E+00  0.000E+00  3.06267E+01  1.823E-01  2.000E+01  2.000E+04  2.137E-01



1
              HEAD IN LAYER   1 AT END OF TIME STEP   1 IN STRESS PERIOD    2
  ---------------------------------------------------------------------------

          1      2      3      4      5      6      7      8      9     10
         11     12     13     14     15     16     17     18     19     20
         21     22     23     24     25     26     27     28     29     30
 .........................................................................
   1  ****** ****** ****** ****** ****** ****** ****** ****** ****** ******
      ****** ****** ****** ****** ****** ****** ****** ****** ****** ******
      ****** ****** ****** ****** ****** ****** ****** ****** ****** ******
   2  ****** ****** ****** ****** ****** ****** ****** ****** ****** ******
      ****** ****** ****** ****** ****** ****** ****** ****** ****** ******
      ****** ****** ****** ****** ****** ****** ****** ****** ****** ******
   3  ****** ****** ****** ****** ****** ****** ****** ****** ****** ******
      ****** ****** ****** ****** ****** ****** ****** ****** ****** ******
      ****** ****** ****** ****** ****** ****** ****** ****** ****** ******
   4  ****** ****** ****** ****** ****** ****** ****** ****** ****** ******
      ****** ****** ****** ****** ****** ****** ****** ****** ****** ******
      ****** ****** ****** ****** ****** ****** ****** ****** ****** ******
   5  ****** ****** ****** ****** ****** ****** ****** ****** ****** ******
      ****** ****** ****** ****** ****** ****** ****** ****** ****** ******
      ****** ****** ****** ****** ****** ****** ****** ****** ****** ******
   6  ****** ****** ****** ****** ****** ****** ****** ****** ****** ******
      ****** ****** ****** ****** ****** ****** ****** ****** ****** ******
      ****** ****** ****** ****** ****** ****** ****** ****** ****** ******
   7  ****** ****** ****** ****** ****** ****** ****** ****** ****** ******
      ****** ****** ****** ****** ****** ****** ****** ****** ****** ******
      ****** ****** ****** ****** ****** ****** ****** ****** ****** ******
   8  ****** ****** ****** ****** ****** ****** ****** ****** ****** ******
      ****** ****** ****** ****** ****** ****** ****** ****** ****** ******
      ****** ****** ****** ****** ****** ****** ****** ****** ****** ******
   9  ****** ****** ****** ****** ****** ****** ****** ****** ****** ******
      ****** ****** ****** ****** ****** ****** ****** ****** ****** ******
      ****** ****** ****** ****** ****** ****** ****** ****** ****** ******
  10  ****** ****** ****** ****** ****** ****** ****** ****** ****** ******
      ****** ****** ****** ****** ****** ****** ****** ****** ****** ******
      ****** ****** ****** ****** ****** ****** ****** ****** ****** ******
  11  ****** ****** ****** ****** ****** ****** ****** ****** ****** ******
      ****** ****** ****** ****** ****** ****** ****** ****** ****** ******
      ****** ****** ****** ****** ****** ****** ****** ****** ****** ******
  12  ****** ****** ****** ****** ****** ****** ****** ****** ****** ******
      ****** ****** ****** ****** ****** ****** ****** ****** ****** ******
      ****** ****** ****** ****** ****** ****** ****** ****** ****** ******
  13  ****** ****** ****** ****** ****** ****** ****** ****** ****** ******
      ****** ****** ****** ****** ****** ****** ****** ****** ****** ******
      ****** ****** ****** ****** ****** ****** ****** ****** ****** ******
  14  ****** ****** ****** ****** ****** ****** ****** ****** ****** ******
      ****** ****** ****** ****** ****** ****** ****** ****** ****** ******
      ****** ****** ****** ****** ****** ****** ****** ****** ****** ******
  15  ****** ****** ****** ****** ****** ****** ****** ****** ****** ******
      ****** ****** ****** ****** ****** ****** ****** ****** ****** ******
      ****** ****** ****** ****** ****** ****** ****** ****** ****** ******
  16  ****** ****** ****** ****** ****** ****** ****** ****** ****** ******
      ****** ****** ****** ****** ****** ****** ****** ****** ****** ******
      ****** ****** ****** ****** ****** ****** ****** ****** ****** ******
  17  ****** ****** ****** ****** ****** ****** ****** ****** ****** ******
      ****** ****** ****** ****** ****** ****** ****** ****** ****** ******
      ****** ****** ****** ****** ****** ****** ****** ****** ****** ******
  18  ****** ****** ****** ****** ****** ****** ****** ****** ****** ******
      ****** ****** ****** ****** ****** ****** ****** ****** ****** ******
      ****** ****** ****** ****** ****** ****** ****** ****** ****** ******
  19  ****** ****** ****** ****** ****** ****** ****** ****** ****** ******
      ****** ****** ****** ****** ****** ****** ****** ****** ****** ******
      ****** ****** ****** ****** ****** ****** ****** ****** ****** ******
  20  ****** ****** ****** ****** ****** ****** ****** ****** ****** ******
      ****** ****** ****** ****** ****** ****** ****** ****** ****** ******
      ****** ****** ****** ****** ****** ****** ****** ****** ****** ******
  21  ****** ****** ****** ****** ****** ****** ****** ****** ****** ******
      ****** ****** ****** ****** ****** ****** ****** ****** ****** ******
      ****** ****** ****** ****** ****** ****** ****** ****** ****** ******
  22  ****** ****** ****** ****** ****** ****** ****** ****** ****** ******
      ****** ****** ****** ****** ****** ****** ****** ****** ****** ******
      ****** ****** ****** ****** ****** ****** ****** ****** ****** ******
  23  ****** ****** ****** ****** ****** ****** ****** ****** ****** ******
      ****** ****** ****** ****** ****** ****** ****** ****** ****** ******
      ****** ****** ****** ****** ****** ****** ****** ****** ****** ******
  24  ****** ****** ****** ****** ****** ****** ****** ****** ****** ******
      ****** ****** ****** ****** ****** ****** ****** ****** ****** ******
      ****** ****** ****** ****** ****** ****** ****** ****** ****** ******
  25  ****** ****** ****** ****** ****** ****** ****** ****** ****** ******
      ****** ****** ****** ****** ****** ****** ****** ****** ****** ******
      ****** ****** ****** ****** ****** ****** ****** ****** ****** ******

 HEAD WILL BE SAVED ON UNIT   51 AT END OF TIME STEP    1, STRESS PERIOD    2
1
  VOLUMETRIC BUDGET FOR ENTIRE MODEL AT END OF TIME STEP    1, STRESS PERIOD   2
  ------------------------------------------------------------------------------

     CUMULATIVE VOLUMES      L**3       RATES FOR THIS TIME STEP      L**3/T
     ------------------                 ------------------------

           IN:                                      IN:
           ---                                      ---
             STORAGE =    22733084.5181               STORAGE =       54796.8086
       CONSTANT HEAD =     2768316.9788         CONSTANT HEAD =       17501.3999
               WELLS =           0.0000                 WELLS =           0.0000
            RECHARGE =     6292800.0000              RECHARGE =       55200.0000
      STREAM LEAKAGE =     7703296.2647        STREAM LEAKAGE =       46432.3217

            TOTAL IN =    39497497.7616              TOTAL IN =      173930.5302

          OUT:                                     OUT:
          ----                                     ----
             STORAGE =           0.0000               STORAGE =           0.0000
       CONSTANT HEAD =           0.0000         CONSTANT HEAD =           0.0000
               WELLS =    14451093.8666                 WELLS =       78967.7260
            RECHARGE =           0.0000              RECHARGE =           0.0000
      STREAM LEAKAGE =    25046404.9838        STREAM LEAKAGE =       94962.8104

           TOTAL OUT =    39497498.8505             TOTAL OUT =      173930.5364

            IN - OUT =          -1.0888              IN - OUT =      -6.2231E-03

 PERCENT DISCREPANCY =          -0.00     PERCENT DISCREPANCY =          -0.00






         TIME SUMMARY AT END OF TIME STEP    1 IN STRESS PERIOD    2
                    SECONDS     MINUTES      HOURS       DAYS        YEARS
                    -----------------------------------------------------------
   TIME STEP LENGTH 7.86240E+06 1.31040E+05  2184.0      91.000     0.24914    
 STRESS PERIOD TIME 7.86240E+06 1.31040E+05  2184.0      91.000     0.24914    
         TOTAL TIME 1.58112E+07 2.63520E+05  4392.0      183.00     0.50103    
1
1
                            STRESS PERIOD NO.    3, LENGTH =   91.00000    
                            -----------------------------------------------

                              NUMBER OF TIME STEPS =     1

                               MULTIPLIER FOR DELT =     1.500

                            INITIAL TIME STEP SIZE =   91.00000    

 WELL NO.  LAYER   ROW   COL   STRESS RATE         
 --------------------------------------------------
      1      1     15      4     -0.1117E+05
      2      1     11     22     -0.1086E+05
      3      1     18     29     -0.4636E+05
      4      1      5     18     -0.1058E+05

      4 WELLS

                 RECHARGE =   0.00000    

 REUSING STREAM SEGMENT DATA FROM LAST STRESS PERIOD
 
 SOLVING FOR HEAD 


     8 CALLS TO PCG ROUTINE FOR TIME STEP   1 IN STRESS PERIOD    3
    32 TOTAL ITERATIONS

 OUTPUT CONTROL FOR STRESS PERIOD    3   TIME STEP    1
    SAVE BUDGET
    SAVE HEAD FOR ALL LAYERS
    PRINT HEAD FOR ALL LAYERS
 UBDSV2 SAVING "STREAMFLOW OUT  " ON UNIT  50 AT TIME STEP  1, STRESS PERIOD   3



 STREAM LISTING     PERIOD      3   STEP        1

 LAYER ROW COL. STREAM  RCH.  FLOW INTO     FLOW TO   FLOW OUT OF   OVRLND.     DIRECT     STREAM       STREAM     STREAM     STREAM   STREAMBED  STREAMBED
                SEG.NO.  NO.  STRM. RCH.    AQUIFER    STRM. RCH.    RUNOFF     PRECIP       ET          HEAD       DEPTH      WIDTH   CONDCTNC.   GRADIENT

   1   13    1     1     1    1.0000E+05 -2.7212E+03   1.0272E+05  0.000E+00  0.000E+00  0.000E+00  4.84072E+01  1.458E-01  2.000E+01  2.000E+04 -1.361E-01
   1   13    2     1     2    1.0272E+05 -3.8255E+03   1.0655E+05  0.000E+00  0.000E+00  0.000E+00  4.79327E+01  1.486E-01  2.000E+01  2.000E+04 -1.913E-01
   1   14    3     1     3    1.0655E+05 -6.3645E+02   1.0718E+05  0.000E+00  0.000E+00  0.000E+00  4.74573E+01  1.505E-01  2.000E+01  2.000E+04 -3.182E-02
   1   15    4     1     4    1.0718E+05  1.0423E+04   9.6760E+04  0.000E+00  0.000E+00  0.000E+00  4.69759E+01  1.464E-01  2.000E+01  2.000E+04  5.211E-01
   1   16    5     1     5    9.6760E+04 -2.4259E+03   9.9186E+04  0.000E+00  0.000E+00  0.000E+00  4.64952E+01  1.429E-01  2.000E+01  2.000E+04 -1.213E-01
   1   16    6     1     6    9.9186E+04 -1.5034E+03   1.0069E+05  0.000E+00  0.000E+00  0.000E+00  4.60196E+01  1.446E-01  2.000E+01  2.000E+04 -7.517E-02
   1   16    7     1     7    1.0069E+05 -1.4723E+03   1.0216E+05  0.000E+00  0.000E+00  0.000E+00  4.55436E+01  1.459E-01  2.000E+01  2.000E+04 -7.362E-02
   1   16    8     1     8    1.0216E+05 -1.4636E+03   1.0363E+05  0.000E+00  0.000E+00  0.000E+00  4.50676E+01  1.471E-01  2.000E+01  2.000E+04 -7.318E-02
   1   16    9     1     9    1.0363E+05 -1.4491E+03   1.0507E+05  0.000E+00  0.000E+00  0.000E+00  4.45916E+01  1.484E-01  2.000E+01  2.000E+04 -7.245E-02
   1   16   10     1    10    1.0507E+05 -1.4269E+03   1.0650E+05  0.000E+00  0.000E+00  0.000E+00  4.41155E+01  1.496E-01  2.000E+01  2.000E+04 -7.134E-02
   1   16   11     1    11    1.0650E+05 -1.4290E+03   1.0793E+05  0.000E+00  0.000E+00  0.000E+00  4.36395E+01  1.508E-01  2.000E+01  2.000E+04 -7.145E-02
   1   16   12     1    12    1.0793E+05 -2.5158E+03   1.1045E+05  0.000E+00  0.000E+00  0.000E+00  4.31638E+01  1.525E-01  2.000E+01  2.000E+04 -1.258E-01
   1   15   13     1    13    1.1045E+05 -2.3780E+03   1.1282E+05  0.000E+00  0.000E+00  0.000E+00  4.26886E+01  1.545E-01  2.000E+01  2.000E+04 -1.189E-01
   1   14   14     1    14    1.1282E+05 -2.6222E+03   1.1545E+05  0.000E+00  0.000E+00  0.000E+00  4.22134E+01  1.566E-01  2.000E+01  2.000E+04 -1.311E-01
   1   13   15     1    15    1.1545E+05 -2.8197E+03   1.1827E+05  0.000E+00  0.000E+00  0.000E+00  4.17384E+01  1.588E-01  2.000E+01  2.000E+04 -1.410E-01
   1   12   16     1    16    1.1827E+05 -3.1891E+03   1.2146E+05  0.000E+00  0.000E+00  0.000E+00  4.12635E+01  1.613E-01  2.000E+01  2.000E+04 -1.595E-01
   1   12   17     1    17    1.2146E+05 -1.9121E+03   1.2337E+05  0.000E+00  0.000E+00  0.000E+00  4.07883E+01  1.633E-01  2.000E+01  2.000E+04 -9.560E-02
   1   12   18     1    18    1.2337E+05 -1.6284E+03   1.2500E+05  0.000E+00  0.000E+00  0.000E+00  4.03125E+01  1.647E-01  2.000E+01  2.000E+04 -8.142E-02
   1   12   19     1    19    1.2500E+05 -1.2511E+03   1.2625E+05  0.000E+00  0.000E+00  0.000E+00  3.98363E+01  1.659E-01  2.000E+01  2.000E+04 -6.256E-02
   1   13   20     1    20    1.2625E+05 -8.4559E+02   1.2709E+05  0.000E+00  0.000E+00  0.000E+00  3.93599E+01  1.667E-01  2.000E+01  2.000E+04 -4.228E-02
   1   14   21     1    21    1.2709E+05 -1.5943E+03   1.2869E+05  0.000E+00  0.000E+00  0.000E+00  3.88836E+01  1.677E-01  2.000E+01  2.000E+04 -7.972E-02
   1   14   22     1    22    1.2869E+05  5.0535E+03   1.2363E+05  0.000E+00  0.000E+00  0.000E+00  3.84049E+01  1.663E-01  2.000E+01  2.000E+04  2.527E-01
   1    9   30     2     1    5.0000E+04 -6.7985E+02   5.0680E+04  0.000E+00  0.000E+00  0.000E+00  4.02413E+01  1.163E-01  2.000E+01  2.000E+04 -3.399E-02
   1    9   29     2     2    5.0680E+04 -9.7515E+02   5.1655E+04  0.000E+00  0.000E+00  0.000E+00  3.99925E+01  1.175E-01  2.000E+01  2.000E+04 -4.876E-02
   1    9   28     2     3    5.1655E+04 -1.2164E+03   5.2871E+04  0.000E+00  0.000E+00  0.000E+00  3.97440E+01  1.190E-01  2.000E+01  2.000E+04 -6.082E-02
   1    9   27     2     4    5.2871E+04 -2.3516E+03   5.5223E+04  0.000E+00  0.000E+00  0.000E+00  3.94964E+01  1.214E-01  2.000E+01  2.000E+04 -1.176E-01
   1   10   26     2     5    5.5223E+04 -1.1445E+03   5.6368E+04  0.000E+00  0.000E+00  0.000E+00  3.92487E+01  1.237E-01  2.000E+01  2.000E+04 -5.723E-02
   1   11   25     2     6    5.6368E+04 -2.9632E+02   5.6664E+04  0.000E+00  0.000E+00  0.000E+00  3.89997E+01  1.247E-01  2.000E+01  2.000E+04 -1.482E-02
   1   12   24     2     7    5.6664E+04  6.2308E+02   5.6041E+04  0.000E+00  0.000E+00  0.000E+00  3.87495E+01  1.245E-01  2.000E+01  2.000E+04  3.115E-02
   1   13   23     2     8    5.6041E+04  1.9556E+02   5.5845E+04  0.000E+00  0.000E+00  0.000E+00  3.84989E+01  1.239E-01  2.000E+01  2.000E+04  9.778E-03
   1   14   22     2     9    5.5845E+04  1.9057E+03   5.3940E+04  0.000E+00  0.000E+00  0.000E+00  3.82475E+01  1.225E-01  2.000E+01  2.000E+04  9.529E-02
   1   14   22     3     1    1.7757E+05 -8.4975E+03   1.8607E+05  0.000E+00  0.000E+00  0.000E+00  3.77274E+01  1.718E-01  2.000E+01  2.000E+04 -4.249E-01
   1   15   23     3     2    1.8607E+05 -6.4605E+02   1.8672E+05  0.000E+00  0.000E+00  0.000E+00  3.68411E+01  1.744E-01  2.000E+01  2.000E+04 -3.230E-02
   1   15   24     3     3    1.8672E+05 -3.2692E+02   1.8704E+05  0.000E+00  0.000E+00  0.000E+00  3.59525E+01  1.747E-01  2.000E+01  2.000E+04 -1.635E-02
   1   15   25     3     4    1.8704E+05 -3.0834E+02   1.8735E+05  0.000E+00  0.000E+00  0.000E+00  3.50637E+01  1.749E-01  2.000E+01  2.000E+04 -1.542E-02
   1   15   26     3     5    1.8735E+05 -3.0229E+02   1.8765E+05  0.000E+00  0.000E+00  0.000E+00  3.41750E+01  1.750E-01  2.000E+01  2.000E+04 -1.511E-02
   1   16   27     3     6    1.8765E+05 -1.9325E+02   1.8785E+05  0.000E+00  0.000E+00  0.000E+00  3.32863E+01  1.752E-01  2.000E+01  2.000E+04 -9.663E-03
   1   17   28     3     7    1.8785E+05  4.5538E+03   1.8329E+05  0.000E+00  0.000E+00  0.000E+00  3.23962E+01  1.739E-01  2.000E+01  2.000E+04  2.277E-01
   1   18   29     3     8    1.8329E+05  2.3320E+04   1.5997E+05  0.000E+00  0.000E+00  0.000E+00  3.14993E+01  1.660E-01  2.000E+01  2.000E+04  1.166E+00
   1   18   30     3     9    1.5997E+05  6.6329E+03   1.5334E+05  0.000E+00  0.000E+00  0.000E+00  3.06016E+01  1.571E-01  2.000E+01  2.000E+04  3.316E-01



1
              HEAD IN LAYER   1 AT END OF TIME STEP   1 IN STRESS PERIOD    3
  ---------------------------------------------------------------------------

          1      2      3      4      5      6      7      8      9     10
         11     12     13     14     15     16     17     18     19     20
         21     22     23     24     25     26     27     28     29     30
 .........................................................................
   1  ****** ****** ****** ****** ****** ****** ****** ****** ****** ******
      ****** ****** ****** ****** ****** ****** ****** ****** ****** ******
      ****** ****** ****** ****** ****** ****** ****** ****** ****** ******
   2  ****** ****** ****** ****** ****** ****** ****** ****** ****** ******
      ****** ****** ****** ****** ****** ****** ****** ****** ****** ******
      ****** ****** ****** ****** ****** ****** ****** ****** ****** ******
   3  ****** ****** ****** ****** ****** ****** ****** ****** ****** ******
      ****** ****** ****** ****** ****** ****** ****** ****** ****** ******
      ****** ****** ****** ****** ****** ****** ****** ****** ****** ******
   4  ****** ****** ****** ****** ****** ****** ****** ****** ****** ******
      ****** ****** ****** ****** ****** ****** ****** ****** ****** ******
      ****** ****** ****** ****** ****** ****** ****** ****** ****** ******
   5  ****** ****** ****** ****** ****** ****** ****** ****** ****** ******
      ****** ****** ****** ****** ****** ****** ****** ****** ****** ******
      ****** ****** ****** ****** ****** ****** ****** ****** ****** ******
   6  ****** ****** ****** ****** ****** ****** ****** ****** ****** ******
      ****** ****** ****** ****** ****** ****** ****** ****** ****** ******
      ****** ****** ****** ****** ****** ****** ****** ****** ****** ******
   7  ****** ****** ****** ****** ****** ****** ****** ****** ****** ******
      ****** ****** ****** ****** ****** ****** ****** ****** ****** ******
      ****** ****** ****** ****** ****** ****** ****** ****** ****** ******
   8  ****** ****** ****** ****** ****** ****** ****** ****** ****** ******
      ****** ****** ****** ****** ****** ****** ****** ****** ****** ******
      ****** ****** ****** ****** ****** ****** ****** ****** ****** ******
   9  ****** ****** ****** ****** ****** ****** ****** ****** ****** ******
      ****** ****** ****** ****** ****** ****** ****** ****** ****** ******
      ****** ****** ****** ****** ****** ****** ****** ****** ****** ******
  10  ****** ****** ****** ****** ****** ****** ****** ****** ****** ******
      ****** ****** ****** ****** ****** ****** ****** ****** ****** ******
      ****** ****** ****** ****** ****** ****** ****** ****** ****** ******
  11  ****** ****** ****** ****** ****** ****** ****** ****** ****** ******
      ****** ****** ****** ****** ****** ****** ****** ****** ****** ******
      ****** ****** ****** ****** ****** ****** ****** ****** ****** ******
  12  ****** ****** ****** ****** ****** ****** ****** ****** ****** ******
      ****** ****** ****** ****** ****** ****** ****** ****** ****** ******
      ****** ****** ****** ****** ****** ****** ****** ****** ****** ******
  13  ****** ****** ****** ****** ****** ****** ****** ****** ****** ******
      ****** ****** ****** ****** ****** ****** ****** ****** ****** ******
      ****** ****** ****** ****** ****** ****** ****** ****** ****** ******
  14  ****** ****** ****** ****** ****** ****** ****** ****** ****** ******
      ****** ****** ****** ****** ****** ****** ****** ****** ****** ******
      ****** ****** ****** ****** ****** ****** ****** ****** ****** ******
  15  ****** ****** ****** ****** ****** ****** ****** ****** ****** ******
      ****** ****** ****** ****** ****** ****** ****** ****** ****** ******
      ****** ****** ****** ****** ****** ****** ****** ****** ****** ******
  16  ****** ****** ****** ****** ****** ****** ****** ****** ****** ******
      ****** ****** ****** ****** ****** ****** ****** ****** ****** ******
      ****** ****** ****** ****** ****** ****** ****** ****** ****** ******
  17  ****** ****** ****** ****** ****** ****** ****** ****** ****** ******
      ****** ****** ****** ****** ****** ****** ****** ****** ****** ******
      ****** ****** ****** ****** ****** ****** ****** ****** ****** ******
  18  ****** ****** ****** ****** ****** ****** ****** ****** ****** ******
      ****** ****** ****** ****** ****** ****** ****** ****** ****** ******
      ****** ****** ****** ****** ****** ****** ****** ****** ****** ******
  19  ****** ****** ****** ****** ****** ****** ****** ****** ****** ******
      ****** ****** ****** ****** ****** ****** ****** ****** ****** ******
      ****** ****** ****** ****** ****** ****** ****** ****** ****** ******
  20  ****** ****** ****** ****** ****** ****** ****** ****** ****** ******
      ****** ****** ****** ****** ****** ****** ****** ****** ****** ******
      ****** ****** ****** ****** ****** ****** ****** ****** ****** ******
  21  ****** ****** ****** ****** ****** ****** ****** ****** ****** ******
      ****** ****** ****** ****** ****** ****** ****** ****** ****** ******
      ****** ****** ****** ****** ****** ****** ****** ****** ****** ******
  22  ****** ****** ****** ****** ****** ****** ****** ****** ****** ******
      ****** ****** ****** ****** ****** ****** ****** ****** ****** ******
      ****** ****** ****** ****** ****** ****** ****** ****** ****** ******
  23  ****** ****** ****** ****** ****** ****** ****** ****** ****** ******
      ****** ****** ****** ****** ****** ****** ****** ****** ****** ******
      ****** ****** ****** ****** ****** ****** ****** ****** ****** ******
  24  ****** ****** ****** ****** ****** ****** ****** ****** ****** ******
      ****** ****** ****** ****** ****** ****** ****** ****** ****** ******
      ****** ****** ****** ****** ****** ****** ****** ****** ****** ******
  25  ****** ****** ****** ****** ****** ****** ****** ****** ****** ******
      ****** ****** ****** ****** ****** ****** ****** ****** ****** ******
      ****** ****** ****** ****** ****** ****** ****** ****** ****** ******

 HEAD WILL BE SAVED ON UNIT   51 AT END OF TIME STEP    1, STRESS PERIOD    3
1
  VOLUMETRIC BUDGET FOR ENTIRE MODEL AT END OF TIME STEP    1, STRESS PERIOD   3
  ------------------------------------------------------------------------------

     CUMULATIVE VOLUMES      L**3       RATES FOR THIS TIME STEP      L**3/T
     ------------------                 ------------------------

           IN:                                      IN:
           ---                                      ---
             STORAGE =    27837374.3866               STORAGE =       56091.0975
       CONSTANT HEAD =     5154116.6958         CONSTANT HEAD =       26217.5793
               WELLS =           0.0000                 WELLS =           0.0000
            RECHARGE =     6292800.0000              RECHARGE =           0.0000
      STREAM LEAKAGE =    12499612.7724        STREAM LEAKAGE =       52706.7748

            TOTAL IN =    51783903.8548              TOTAL IN =      135015.4516

          OUT:                                     OUT:
          ----                                     ----
             STORAGE =           0.0000               STORAGE =           0.0000
       CONSTANT HEAD =           0.0000         CONSTANT HEAD =           0.0000
               WELLS =    21637156.9369                 WELLS =       78967.7260
            RECHARGE =           0.0000              RECHARGE =           0.0000
      STREAM LEAKAGE =    30146748.3890        STREAM LEAKAGE =       56047.7297

           TOTAL OUT =    51783905.3259             TOTAL OUT =      135015.4558

            IN - OUT =          -1.4711              IN - OUT =      -4.2007E-03

 PERCENT DISCREPANCY =          -0.00     PERCENT DISCREPANCY =          -0.00






         TIME SUMMARY AT END OF TIME STEP    1 IN STRESS PERIOD    3
                    SECONDS     MINUTES      HOURS       DAYS        YEARS
                    -----------------------------------------------------------
   TIME STEP LENGTH 7.86240E+06 1.31040E+05  2184.0      91.000     0.24914    
 STRESS PERIOD TIME 7.86240E+06 1.31040E+05  2184.0      91.000     0.24914    
         TOTAL TIME 2.36736E+07 3.94560E+05  6576.0      274.00     0.75017    
1
1
                            STRESS PERIOD NO.    4, LENGTH =   91.00000    
                            -----------------------------------------------

                              NUMBER OF TIME STEPS =     1

                               MULTIPLIER FOR DELT =     1.500

                            INITIAL TIME STEP SIZE =   91.00000    

 WELL NO.  LAYER   ROW   COL   STRESS RATE         
 --------------------------------------------------
      1      1     15      4     -0.1117E+05
      2      1     11     22     -0.1086E+05
      3      1     18     29     -0.4636E+05
      4      1      5     18     -0.1058E+05

      4 WELLS

                 RECHARGE =  1.000000E-03

 REUSING STREAM SEGMENT DATA FROM LAST STRESS PERIOD
 
 SOLVING FOR HEAD 


     7 CALLS TO PCG ROUTINE FOR TIME STEP   1 IN STRESS PERIOD    4
    29 TOTAL ITERATIONS

 OUTPUT CONTROL FOR STRESS PERIOD    4   TIME STEP    1
    SAVE BUDGET
    SAVE HEAD FOR ALL LAYERS
    PRINT HEAD FOR ALL LAYERS
 UBDSV2 SAVING "STREAMFLOW OUT  " ON UNIT  50 AT TIME STEP  1, STRESS PERIOD   4



 STREAM LISTING     PERIOD      4   STEP        1

 LAYER ROW COL. STREAM  RCH.  FLOW INTO     FLOW TO   FLOW OUT OF   OVRLND.     DIRECT     STREAM       STREAM     STREAM     STREAM   STREAMBED  STREAMBED
                SEG.NO.  NO.  STRM. RCH.    AQUIFER    STRM. RCH.    RUNOFF     PRECIP       ET          HEAD       DEPTH      WIDTH   CONDCTNC.   GRADIENT

   1   13    1     1     1    1.0000E+05 -2.4759E+03   1.0248E+05  0.000E+00  0.000E+00  0.000E+00  4.84071E+01  1.457E-01  2.000E+01  2.000E+04 -1.238E-01
   1   13    2     1     2    1.0248E+05 -3.5408E+03   1.0602E+05  0.000E+00  0.000E+00  0.000E+00  4.79324E+01  1.483E-01  2.000E+01  2.000E+04 -1.770E-01
   1   14    3     1     3    1.0602E+05 -6.0723E+02   1.0662E+05  0.000E+00  0.000E+00  0.000E+00  4.74569E+01  1.501E-01  2.000E+01  2.000E+04 -3.036E-02
   1   15    4     1     4    1.0662E+05  1.0461E+04   9.6163E+04  0.000E+00  0.000E+00  0.000E+00  4.69754E+01  1.459E-01  2.000E+01  2.000E+04  5.231E-01
   1   16    5     1     5    9.6163E+04 -2.1285E+03   9.8291E+04  0.000E+00  0.000E+00  0.000E+00  4.64945E+01  1.422E-01  2.000E+01  2.000E+04 -1.064E-01
   1   16    6     1     6    9.8291E+04 -1.3573E+03   9.9649E+04  0.000E+00  0.000E+00  0.000E+00  4.60188E+01  1.438E-01  2.000E+01  2.000E+04 -6.786E-02
   1   16    7     1     7    9.9649E+04 -1.3375E+03   1.0099E+05  0.000E+00  0.000E+00  0.000E+00  4.55427E+01  1.449E-01  2.000E+01  2.000E+04 -6.687E-02
   1   16    8     1     8    1.0099E+05 -1.3332E+03   1.0232E+05  0.000E+00  0.000E+00  0.000E+00  4.50665E+01  1.461E-01  2.000E+01  2.000E+04 -6.666E-02
   1   16    9     1     9    1.0232E+05 -1.3218E+03   1.0364E+05  0.000E+00  0.000E+00  0.000E+00  4.45904E+01  1.472E-01  2.000E+01  2.000E+04 -6.609E-02
   1   16   10     1    10    1.0364E+05 -1.3034E+03   1.0494E+05  0.000E+00  0.000E+00  0.000E+00  4.41143E+01  1.483E-01  2.000E+01  2.000E+04 -6.517E-02
   1   16   11     1    11    1.0494E+05 -1.3062E+03   1.0625E+05  0.000E+00  0.000E+00  0.000E+00  4.36381E+01  1.495E-01  2.000E+01  2.000E+04 -6.531E-02
   1   16   12     1    12    1.0625E+05 -2.2541E+03   1.0850E+05  0.000E+00  0.000E+00  0.000E+00  4.31623E+01  1.510E-01  2.000E+01  2.000E+04 -1.127E-01
   1   15   13     1    13    1.0850E+05 -2.1238E+03   1.1063E+05  0.000E+00  0.000E+00  0.000E+00  4.26869E+01  1.528E-01  2.000E+01  2.000E+04 -1.062E-01
   1   14   14     1    14    1.1063E+05 -2.3357E+03   1.1296E+05  0.000E+00  0.000E+00  0.000E+00  4.22115E+01  1.547E-01  2.000E+01  2.000E+04 -1.168E-01
   1   13   15     1    15    1.1296E+05 -2.4963E+03   1.1546E+05  0.000E+00  0.000E+00  0.000E+00  4.17362E+01  1.567E-01  2.000E+01  2.000E+04 -1.248E-01
   1   12   16     1    16    1.1546E+05 -2.7443E+03   1.1820E+05  0.000E+00  0.000E+00  0.000E+00  4.12611E+01  1.588E-01  2.000E+01  2.000E+04 -1.372E-01
   1   12   17     1    17    1.1820E+05 -1.6454E+03   1.1985E+05  0.000E+00  0.000E+00  0.000E+00  4.07856E+01  1.606E-01  2.000E+01  2.000E+04 -8.227E-02
   1   12   18     1    18    1.1985E+05 -1.3792E+03   1.2123E+05  0.000E+00  0.000E+00  0.000E+00  4.03095E+01  1.618E-01  2.000E+01  2.000E+04 -6.896E-02
   1   12   19     1    19    1.2123E+05 -9.3401E+02   1.2216E+05  0.000E+00  0.000E+00  0.000E+00  3.98332E+01  1.627E-01  2.000E+01  2.000E+04 -4.670E-02
   1   13   20     1    20    1.2216E+05 -6.5330E+02   1.2282E+05  0.000E+00  0.000E+00  0.000E+00  3.93566E+01  1.634E-01  2.000E+01  2.000E+04 -3.266E-02
   1   14   21     1    21    1.2282E+05 -1.3572E+03   1.2417E+05  0.000E+00  0.000E+00  0.000E+00  3.88801E+01  1.642E-01  2.000E+01  2.000E+04 -6.786E-02
   1   14   22     1    22    1.2417E+05  5.0928E+03   1.1908E+05  0.000E+00  0.000E+00  0.000E+00  3.84013E+01  1.627E-01  2.000E+01  2.000E+04  2.546E-01
   1    9   30     2     1    5.0000E+04 -5.6611E+02   5.0566E+04  0.000E+00  0.000E+00  0.000E+00  4.02413E+01  1.163E-01  2.000E+01  2.000E+04 -2.831E-02
   1    9   29     2     2    5.0566E+04 -8.5352E+02   5.1420E+04  0.000E+00  0.000E+00  0.000E+00  3.99922E+01  1.172E-01  2.000E+01  2.000E+04 -4.268E-02
   1    9   28     2     3    5.1420E+04 -1.0719E+03   5.2492E+04  0.000E+00  0.000E+00  0.000E+00  3.97436E+01  1.186E-01  2.000E+01  2.000E+04 -5.359E-02
   1    9   27     2     4    5.2492E+04 -2.0329E+03   5.4524E+04  0.000E+00  0.000E+00  0.000E+00  3.94957E+01  1.207E-01  2.000E+01  2.000E+04 -1.016E-01
   1   10   26     2     5    5.4524E+04 -9.4260E+02   5.5467E+04  0.000E+00  0.000E+00  0.000E+00  3.92477E+01  1.227E-01  2.000E+01  2.000E+04 -4.713E-02
   1   11   25     2     6    5.5467E+04 -1.3891E+02   5.5606E+04  0.000E+00  0.000E+00  0.000E+00  3.89984E+01  1.234E-01  2.000E+01  2.000E+04 -6.945E-03
   1   12   24     2     7    5.5606E+04  7.5905E+02   5.4847E+04  0.000E+00  0.000E+00  0.000E+00  3.87480E+01  1.230E-01  2.000E+01  2.000E+04  3.795E-02
   1   13   23     2     8    5.4847E+04  1.7556E+02   5.4671E+04  0.000E+00  0.000E+00  0.000E+00  3.84974E+01  1.224E-01  2.000E+01  2.000E+04  8.778E-03
   1   14   22     2     9    5.4671E+04  1.9845E+03   5.2687E+04  0.000E+00  0.000E+00  0.000E+00  3.82459E+01  1.209E-01  2.000E+01  2.000E+04  9.923E-02
   1   14   22     3     1    1.7177E+05 -8.4525E+03   1.8022E+05  0.000E+00  0.000E+00  0.000E+00  3.77241E+01  1.685E-01  2.000E+01  2.000E+04 -4.226E-01
   1   15   23     3     2    1.8022E+05 -6.2116E+02   1.8084E+05  0.000E+00  0.000E+00  0.000E+00  3.68378E+01  1.711E-01  2.000E+01  2.000E+04 -3.106E-02
   1   15   24     3     3    1.8084E+05 -3.2377E+02   1.8117E+05  0.000E+00  0.000E+00  0.000E+00  3.59491E+01  1.714E-01  2.000E+01  2.000E+04 -1.619E-02
   1   15   25     3     4    1.8117E+05 -3.0383E+02   1.8147E+05  0.000E+00  0.000E+00  0.000E+00  3.50604E+01  1.715E-01  2.000E+01  2.000E+04 -1.519E-02
   1   15   26     3     5    1.8147E+05 -3.0489E+02   1.8177E+05  0.000E+00  0.000E+00  0.000E+00  3.41717E+01  1.717E-01  2.000E+01  2.000E+04 -1.524E-02
   1   16   27     3     6    1.8177E+05 -1.7834E+02   1.8195E+05  0.000E+00  0.000E+00  0.000E+00  3.32830E+01  1.718E-01  2.000E+01  2.000E+04 -8.917E-03
   1   17   28     3     7    1.8195E+05  4.8159E+03   1.7714E+05  0.000E+00  0.000E+00  0.000E+00  3.23928E+01  1.705E-01  2.000E+01  2.000E+04  2.408E-01
   1   18   29     3     8    1.7714E+05  2.3248E+04   1.5389E+05  0.000E+00  0.000E+00  0.000E+00  3.14957E+01  1.624E-01  2.000E+01  2.000E+04  1.162E+00
   1   18   30     3     9    1.5389E+05  7.0263E+03   1.4686E+05  0.000E+00  0.000E+00  0.000E+00  3.05978E+01  1.533E-01  2.000E+01  2.000E+04  3.513E-01



1
              HEAD IN LAYER   1 AT END OF TIME STEP   1 IN STRESS PERIOD    4
  ---------------------------------------------------------------------------

          1      2      3      4      5      6      7      8      9     10
         11     12     13     14     15     16     17     18     19     20
         21     22     23     24     25     26     27     28     29     30
 .........................................................................
   1  ****** ****** ****** ****** ****** ****** ****** ****** ****** ******
      ****** ****** ****** ****** ****** ****** ****** ****** ****** ******
      ****** ****** ****** ****** ****** ****** ****** ****** ****** ******
   2  ****** ****** ****** ****** ****** ****** ****** ****** ****** ******
      ****** ****** ****** ****** ****** ****** ****** ****** ****** ******
      ****** ****** ****** ****** ****** ****** ****** ****** ****** ******
   3  ****** ****** ****** ****** ****** ****** ****** ****** ****** ******
      ****** ****** ****** ****** ****** ****** ****** ****** ****** ******
      ****** ****** ****** ****** ****** ****** ****** ****** ****** ******
   4  ****** ****** ****** ****** ****** ****** ****** ****** ****** ******
      ****** ****** ****** ****** ****** ****** ****** ****** ****** ******
      ****** ****** ****** ****** ****** ****** ****** ****** ****** ******
   5  ****** ****** ****** ****** ****** ****** ****** ****** ****** ******
      ****** ****** ****** ****** ****** ****** ****** ****** ****** ******
      ****** ****** ****** ****** ****** ****** ****** ****** ****** ******
   6  ****** ****** ****** ****** ****** ****** ****** ****** ****** ******
      ****** ****** ****** ****** ****** ****** ****** ****** ****** ******
      ****** ****** ****** ****** ****** ****** ****** ****** ****** ******
   7  ****** ****** ****** ****** ****** ****** ****** ****** ****** ******
      ****** ****** ****** ****** ****** ****** ****** ****** ****** ******
      ****** ****** ****** ****** ****** ****** ****** ****** ****** ******
   8  ****** ****** ****** ****** ****** ****** ****** ****** ****** ******
      ****** ****** ****** ****** ****** ****** ****** ****** ****** ******
      ****** ****** ****** ****** ****** ****** ****** ****** ****** ******
   9  ****** ****** ****** ****** ****** ****** ****** ****** ****** ******
      ****** ****** ****** ****** ****** ****** ****** ****** ****** ******
      ****** ****** ****** ****** ****** ****** ****** ****** ****** ******
  10  ****** ****** ****** ****** ****** ****** ****** ****** ****** ******
      ****** ****** ****** ****** ****** ****** ****** ****** ****** ******
      ****** ****** ****** ****** ****** ****** ****** ****** ****** ******
  11  ****** ****** ****** ****** ****** ****** ****** ****** ****** ******
      ****** ****** ****** ****** ****** ****** ****** ****** ****** ******
      ****** ****** ****** ****** ****** ****** ****** ****** ****** ******
  12  ****** ****** ****** ****** ****** ****** ****** ****** ****** ******
      ****** ****** ****** ****** ****** ****** ****** ****** ****** ******
      ****** ****** ****** ****** ****** ****** ****** ****** ****** ******
  13  ****** ****** ****** ****** ****** ****** ****** ****** ****** ******
      ****** ****** ****** ****** ****** ****** ****** ****** ****** ******
      ****** ****** ****** ****** ****** ****** ****** ****** ****** ******
  14  ****** ****** ****** ****** ****** ****** ****** ****** ****** ******
      ****** ****** ****** ****** ****** ****** ****** ****** ****** ******
      ****** ****** ****** ****** ****** ****** ****** ****** ****** ******
  15  ****** ****** ****** ****** ****** ****** ****** ****** ****** ******
      ****** ****** ****** ****** ****** ****** ****** ****** ****** ******
      ****** ****** ****** ****** ****** ****** ****** ****** ****** ******
  16  ****** ****** ****** ****** ****** ****** ****** ****** ****** ******
      ****** ****** ****** ****** ****** ****** ****** ****** ****** ******
      ****** ****** ****** ****** ****** ****** ****** ****** ****** ******
  17  ****** ****** ****** ****** ****** ****** ****** ****** ****** ******
      ****** ****** ****** ****** ****** ****** ****** ****** ****** ******
      ****** ****** ****** ****** ****** ****** ****** ****** ****** ******
  18  ****** ****** ****** ****** ****** ****** ****** ****** ****** ******
      ****** ****** ****** ****** ****** ****** ****** ****** ****** ******
      ****** ****** ****** ****** ****** ****** ****** ****** ****** ******
  19  ****** ****** ****** ****** ****** ****** ****** ****** ****** ******
      ****** ****** ****** ****** ****** ****** ****** ****** ****** ******
      ****** ****** ****** ****** ****** ****** ****** ****** ****** ******
  20  ****** ****** ****** ****** ****** ****** ****** ****** ****** ******
      ****** ****** ****** ****** ****** ****** ****** ****** ****** ******
      ****** ****** ****** ****** ****** ****** ****** ****** ****** ******
  21  ****** ****** ****** ****** ****** ****** ****** ****** ****** ******
      ****** ****** ****** ****** ****** ****** ****** ****** ****** ******
      ****** ****** ****** ****** ****** ****** ****** ****** ****** ******
  22  ****** ****** ****** ****** ****** ****** ****** ****** ****** ******
      ****** ****** ****** ****** ****** ****** ****** ****** ****** ******
      ****** ****** ****** ****** ****** ****** ****** ****** ****** ******
  23  ****** ****** ****** ****** ****** ****** ****** ****** ****** ******
      ****** ****** ****** ****** ****** ****** ****** ****** ****** ******
      ****** ****** ****** ****** ****** ****** ****** ****** ****** ******
  24  ****** ****** ****** ****** ****** ****** ****** ****** ****** ******
      ****** ****** ****** ****** ****** ****** ****** ****** ****** ******
      ****** ****** ****** ****** ****** ****** ****** ****** ****** ******
  25  ****** ****** ****** ****** ****** ****** ****** ****** ****** ******
      ****** ****** ****** ****** ****** ****** ****** ****** ****** ******
      ****** ****** ****** ****** ****** ****** ****** ****** ****** ******

 HEAD WILL BE SAVED ON UNIT   51 AT END OF TIME STEP    1, STRESS PERIOD    4
1
  VOLUMETRIC BUDGET FOR ENTIRE MODEL AT END OF TIME STEP    1, STRESS PERIOD   4
  ------------------------------------------------------------------------------

     CUMULATIVE VOLUMES      L**3       RATES FOR THIS TIME STEP      L**3/T
     ------------------                 ------------------------

           IN:                                      IN:
           ---                                      ---
             STORAGE =    29593198.1995               STORAGE =       19294.7672
       CONSTANT HEAD =     7787748.4354         CONSTANT HEAD =       28941.0081
               WELLS =           0.0000                 WELLS =           0.0000
            RECHARGE =     8804400.0000              RECHARGE =       27600.0000
      STREAM LEAKAGE =    17373874.6556        STREAM LEAKAGE =       53563.3174

            TOTAL IN =    63559221.2905              TOTAL IN =      129399.0927

          OUT:                                     OUT:
          ----                                     ----
             STORAGE =         527.6849               STORAGE =           5.7987
       CONSTANT HEAD =           0.0000         CONSTANT HEAD =           0.0000
               WELLS =    28823220.0072                 WELLS =       78967.7260
            RECHARGE =           0.0000              RECHARGE =           0.0000
      STREAM LEAKAGE =    34735475.3247        STREAM LEAKAGE =       50425.5707

           TOTAL OUT =    63559223.0168             TOTAL OUT =      129399.0955

            IN - OUT =          -1.7262              IN - OUT =      -2.8037E-03

 PERCENT DISCREPANCY =          -0.00     PERCENT DISCREPANCY =          -0.00






         TIME SUMMARY AT END OF TIME STEP    1 IN STRESS PERIOD    4
                    SECONDS     MINUTES      HOURS       DAYS        YEARS
                    -----------------------------------------------------------
   TIME STEP LENGTH 7.86240E+06 1.31040E+05  2184.0      91.000     0.24914    
 STRESS PERIOD TIME 7.86240E+06 1.31040E+05  2184.0      91.000     0.24914    
         TOTAL TIME 3.15360E+07 5.25600E+05  8760.0      365.00     0.99932    
1
1
                            STRESS PERIOD NO.    5, LENGTH =   92.00000    
                            -----------------------------------------------

                              NUMBER OF TIME STEPS =     1

                               MULTIPLIER FOR DELT =     1.500

                            INITIAL TIME STEP SIZE =   92.00000    

 WELL NO.  LAYER   ROW   COL   STRESS RATE         
 --------------------------------------------------
      1      1     15      4     -0.1117E+05
      2      1     11     22     -0.1086E+05
      3      1     18     29     -0.4636E+05
      4      1      5     18     -0.1058E+05

      4 WELLS

                 RECHARGE =  5.000000E-04

 REUSING STREAM SEGMENT DATA FROM LAST STRESS PERIOD
 
 SOLVING FOR HEAD 


     8 CALLS TO PCG ROUTINE FOR TIME STEP   1 IN STRESS PERIOD    5
    31 TOTAL ITERATIONS

 OUTPUT CONTROL FOR STRESS PERIOD    5   TIME STEP    1
    SAVE BUDGET
    SAVE HEAD FOR ALL LAYERS
    PRINT HEAD FOR ALL LAYERS
 UBDSV2 SAVING "STREAMFLOW OUT  " ON UNIT  50 AT TIME STEP  1, STRESS PERIOD   5



 STREAM LISTING     PERIOD      5   STEP        1

 LAYER ROW COL. STREAM  RCH.  FLOW INTO     FLOW TO   FLOW OUT OF   OVRLND.     DIRECT     STREAM       STREAM     STREAM     STREAM   STREAMBED  STREAMBED
                SEG.NO.  NO.  STRM. RCH.    AQUIFER    STRM. RCH.    RUNOFF     PRECIP       ET          HEAD       DEPTH      WIDTH   CONDCTNC.   GRADIENT

   1   13    1     1     1    1.0000E+05 -2.0519E+03   1.0205E+05  0.000E+00  0.000E+00  0.000E+00  4.84069E+01  1.455E-01  2.000E+01  2.000E+04 -1.026E-01
   1   13    2     1     2    1.0205E+05 -3.0616E+03   1.0511E+05  0.000E+00  0.000E+00  0.000E+00  4.79318E+01  1.477E-01  2.000E+01  2.000E+04 -1.531E-01
   1   14    3     1     3    1.0511E+05 -4.8423E+02   1.0560E+05  0.000E+00  0.000E+00  0.000E+00  4.74561E+01  1.493E-01  2.000E+01  2.000E+04 -2.421E-02
   1   15    4     1     4    1.0560E+05  1.0590E+04   9.5007E+04  0.000E+00  0.000E+00  0.000E+00  4.69745E+01  1.449E-01  2.000E+01  2.000E+04  5.295E-01
   1   16    5     1     5    9.5007E+04 -1.7010E+03   9.6708E+04  0.000E+00  0.000E+00  0.000E+00  4.64933E+01  1.410E-01  2.000E+01  2.000E+04 -8.505E-02
   1   16    6     1     6    9.6708E+04 -1.1065E+03   9.7815E+04  0.000E+00  0.000E+00  0.000E+00  4.60173E+01  1.423E-01  2.000E+01  2.000E+04 -5.533E-02
   1   16    7     1     7    9.7815E+04 -1.0970E+03   9.8912E+04  0.000E+00  0.000E+00  0.000E+00  4.55410E+01  1.432E-01  2.000E+01  2.000E+04 -5.485E-02
   1   16    8     1     8    9.8912E+04 -1.0963E+03   1.0001E+05  0.000E+00  0.000E+00  0.000E+00  4.50646E+01  1.442E-01  2.000E+01  2.000E+04 -5.482E-02
   1   16    9     1     9    1.0001E+05 -1.0880E+03   1.0110E+05  0.000E+00  0.000E+00  0.000E+00  4.45883E+01  1.451E-01  2.000E+01  2.000E+04 -5.440E-02
   1   16   10     1    10    1.0110E+05 -1.0733E+03   1.0217E+05  0.000E+00  0.000E+00  0.000E+00  4.41120E+01  1.461E-01  2.000E+01  2.000E+04 -5.366E-02
   1   16   11     1    11    1.0217E+05 -1.0760E+03   1.0325E+05  0.000E+00  0.000E+00  0.000E+00  4.36356E+01  1.470E-01  2.000E+01  2.000E+04 -5.380E-02
   1   16   12     1    12    1.0325E+05 -1.8399E+03   1.0509E+05  0.000E+00  0.000E+00  0.000E+00  4.31596E+01  1.482E-01  2.000E+01  2.000E+04 -9.199E-02
   1   15   13     1    13    1.0509E+05 -1.6806E+03   1.0677E+05  0.000E+00  0.000E+00  0.000E+00  4.26838E+01  1.497E-01  2.000E+01  2.000E+04 -8.403E-02
   1   14   14     1    14    1.0677E+05 -1.8590E+03   1.0863E+05  0.000E+00  0.000E+00  0.000E+00  4.22080E+01  1.512E-01  2.000E+01  2.000E+04 -9.295E-02
   1   13   15     1    15    1.0863E+05 -1.9960E+03   1.1062E+05  0.000E+00  0.000E+00  0.000E+00  4.17324E+01  1.529E-01  2.000E+01  2.000E+04 -9.980E-02
   1   12   16     1    16    1.1062E+05 -2.1856E+03   1.1281E+05  0.000E+00  0.000E+00  0.000E+00  4.12569E+01  1.546E-01  2.000E+01  2.000E+04 -1.093E-01
   1   12   17     1    17    1.1281E+05 -1.2730E+03   1.1408E+05  0.000E+00  0.000E+00  0.000E+00  4.07810E+01  1.560E-01  2.000E+01  2.000E+04 -6.365E-02
   1   12   18     1    18    1.1408E+05 -1.0247E+03   1.1510E+05  0.000E+00  0.000E+00  0.000E+00  4.03047E+01  1.570E-01  2.000E+01  2.000E+04 -5.124E-02
   1   12   19     1    19    1.1510E+05 -5.0124E+02   1.1561E+05  0.000E+00  0.000E+00  0.000E+00  3.98281E+01  1.576E-01  2.000E+01  2.000E+04 -2.506E-02
   1   13   20     1    20    1.1561E+05 -2.8639E+02   1.1589E+05  0.000E+00  0.000E+00  0.000E+00  3.93511E+01  1.579E-01  2.000E+01  2.000E+04 -1.432E-02
   1   14   21     1    21    1.1589E+05 -9.7224E+02   1.1686E+05  0.000E+00  0.000E+00  0.000E+00  3.88743E+01  1.584E-01  2.000E+01  2.000E+04 -4.861E-02
   1   14   22     1    22    1.1686E+05  5.1740E+03   1.1169E+05  0.000E+00  0.000E+00  0.000E+00  3.83953E+01  1.567E-01  2.000E+01  2.000E+04  2.587E-01
[...]
  19  ****** ****** ****** ****** ****** ****** ****** ****** ****** ******
      ****** ****** ****** ****** ****** ****** ****** ****** ****** ******
      ****** ****** ****** ****** ****** ****** ****** ****** ****** ******
  20  ****** ****** ****** ****** ****** ****** ****** ****** ****** ******
      ****** ****** ****** ****** ****** ****** ****** ****** ****** ******
      ****** ****** ****** ****** ****** ****** ****** ****** ****** ******
  21  ****** ****** ****** ****** ****** ****** ****** ****** ****** ******
      ****** ****** ****** ****** ****** ****** ****** ****** ****** ******
      ****** ****** ****** ****** ****** ****** ****** ****** ****** ******
  22  ****** ****** ****** ****** ****** ****** ****** ****** ****** ******
      ****** ****** ****** ****** ****** ****** ****** ****** ****** ******
      ****** ****** ****** ****** ****** ****** ****** ****** ****** ******
  23  ****** ****** ****** ****** ****** ****** ****** ****** ****** ******
      ****** ****** ****** ****** ****** ****** ****** ****** ****** ******
      ****** ****** ****** ****** ****** ****** ****** ****** ****** ******
  24  ****** ****** ****** ****** ****** ****** ****** ****** ****** ******
      ****** ****** ****** ****** ****** ****** ****** ****** ****** ******
      ****** ****** ****** ****** ****** ****** ****** ****** ****** ******
  25  ****** ****** ****** ****** ****** ****** ****** ****** ****** ******
      ****** ****** ****** ****** ****** ****** ****** ****** ****** ******
      ****** ****** ****** ****** ****** ****** ****** ****** ****** ******

 HEAD WILL BE SAVED ON UNIT   51 AT END OF TIME STEP    1, STRESS PERIOD   11
1
  VOLUMETRIC BUDGET FOR ENTIRE MODEL AT END OF TIME STEP    1, STRESS PERIOD  11
  ------------------------------------------------------------------------------

     CUMULATIVE VOLUMES      L**3       RATES FOR THIS TIME STEP      L**3/T
     ------------------                 ------------------------

           IN:                                      IN:
           ---                                      ---
             STORAGE =    35873899.8518               STORAGE =       18096.3678
       CONSTANT HEAD =    28988089.0340         CONSTANT HEAD =       35326.1017
               WELLS =           0.0000                 WELLS =           0.0000
            RECHARGE =    23901600.0000              RECHARGE =           0.0000
      STREAM LEAKAGE =    52828115.5357        STREAM LEAKAGE =       57167.9503

            TOTAL IN =   141591704.4215              TOTAL IN =      110590.4198

          OUT:                                     OUT:
          ----                                     ----
             STORAGE =     2342744.6600               STORAGE =           0.0000
       CONSTANT HEAD =           0.0000         CONSTANT HEAD =           0.0000
               WELLS =    79283596.9514                 WELLS =       78967.7260
            RECHARGE =           0.0000              RECHARGE =           0.0000
      STREAM LEAKAGE =    59965364.9708        STREAM LEAKAGE =       31622.6965

           TOTAL OUT =   141591706.5821             TOTAL OUT =      110590.4225

            IN - OUT =          -2.1606              IN - OUT =      -2.7627E-03

 PERCENT DISCREPANCY =          -0.00     PERCENT DISCREPANCY =          -0.00






         TIME SUMMARY AT END OF TIME STEP    1 IN STRESS PERIOD   11
                    SECONDS     MINUTES      HOURS       DAYS        YEARS
                    -----------------------------------------------------------
   TIME STEP LENGTH 7.86240E+06 1.31040E+05  2184.0      91.000     0.24914    
 STRESS PERIOD TIME 7.86240E+06 1.31040E+05  2184.0      91.000     0.24914    
         TOTAL TIME 8.67456E+07 1.44576E+06  24096.      1004.0      2.7488    
1
1
                            STRESS PERIOD NO.   12, LENGTH =   91.00000    
                            -----------------------------------------------

                              NUMBER OF TIME STEPS =     1

                               MULTIPLIER FOR DELT =     1.500

                            INITIAL TIME STEP SIZE =   91.00000    

 WELL NO.  LAYER   ROW   COL   STRESS RATE         
 --------------------------------------------------
      1      1     15      4     -0.1117E+05
      2      1     11     22     -0.1086E+05
      3      1     18     29     -0.4636E+05
      4      1      5     18     -0.1058E+05

      4 WELLS

                 RECHARGE =  1.000000E-03

 REUSING STREAM SEGMENT DATA FROM LAST STRESS PERIOD
 
 SOLVING FOR HEAD 


     7 CALLS TO PCG ROUTINE FOR TIME STEP   1 IN STRESS PERIOD   12
    29 TOTAL ITERATIONS

 OUTPUT CONTROL FOR STRESS PERIOD   12   TIME STEP    1
    SAVE BUDGET
    SAVE HEAD FOR ALL LAYERS
    PRINT HEAD FOR ALL LAYERS
 UBDSV2 SAVING "STREAMFLOW OUT  " ON UNIT  50 AT TIME STEP  1, STRESS PERIOD  12



 STREAM LISTING     PERIOD     12   STEP        1

 LAYER ROW COL. STREAM  RCH.  FLOW INTO     FLOW TO   FLOW OUT OF   OVRLND.     DIRECT     STREAM       STREAM     STREAM     STREAM   STREAMBED  STREAMBED
                SEG.NO.  NO.  STRM. RCH.    AQUIFER    STRM. RCH.    RUNOFF     PRECIP       ET          HEAD       DEPTH      WIDTH   CONDCTNC.   GRADIENT

   1   13    1     1     1    1.0000E+05 -1.5636E+03   1.0156E+05  0.000E+00  0.000E+00  0.000E+00  4.84067E+01  1.453E-01  2.000E+01  2.000E+04 -7.818E-02
   1   13    2     1     2    1.0156E+05 -2.4867E+03   1.0405E+05  0.000E+00  0.000E+00  0.000E+00  4.79312E+01  1.471E-01  2.000E+01  2.000E+04 -1.243E-01
   1   14    3     1     3    1.0405E+05 -4.1126E+02   1.0446E+05  0.000E+00  0.000E+00  0.000E+00  4.74551E+01  1.483E-01  2.000E+01  2.000E+04 -2.056E-02
   1   15    4     1     4    1.0446E+05  1.0652E+04   9.3809E+04  0.000E+00  0.000E+00  0.000E+00  4.69734E+01  1.439E-01  2.000E+01  2.000E+04  5.326E-01
   1   16    5     1     5    9.3809E+04 -1.5696E+03   9.5379E+04  0.000E+00  0.000E+00  0.000E+00  4.64922E+01  1.399E-01  2.000E+01  2.000E+04 -7.848E-02
   1   16    6     1     6    9.5379E+04 -1.0086E+03   9.6388E+04  0.000E+00  0.000E+00  0.000E+00  4.60160E+01  1.410E-01  2.000E+01  2.000E+04 -5.043E-02
   1   16    7     1     7    9.6388E+04 -9.9498E+02   9.7383E+04  0.000E+00  0.000E+00  0.000E+00  4.55397E+01  1.419E-01  2.000E+01  2.000E+04 -4.975E-02
   1   16    8     1     8    9.7383E+04 -9.9519E+02   9.8378E+04  0.000E+00  0.000E+00  0.000E+00  4.50633E+01  1.428E-01  2.000E+01  2.000E+04 -4.976E-02
   1   16    9     1     9    9.8378E+04 -9.9351E+02   9.9371E+04  0.000E+00  0.000E+00  0.000E+00  4.45869E+01  1.437E-01  2.000E+01  2.000E+04 -4.968E-02
   1   16   10     1    10    9.9371E+04 -9.9029E+02   1.0036E+05  0.000E+00  0.000E+00  0.000E+00  4.41104E+01  1.445E-01  2.000E+01  2.000E+04 -4.951E-02
   1   16   11     1    11    1.0036E+05 -1.0036E+03   1.0137E+05  0.000E+00  0.000E+00  0.000E+00  4.36340E+01  1.454E-01  2.000E+01  2.000E+04 -5.018E-02
   1   16   12     1    12    1.0137E+05 -1.6646E+03   1.0303E+05  0.000E+00  0.000E+00  0.000E+00  4.31579E+01  1.466E-01  2.000E+01  2.000E+04 -8.323E-02
   1   15   13     1    13    1.0303E+05 -1.4277E+03   1.0446E+05  0.000E+00  0.000E+00  0.000E+00  4.26820E+01  1.479E-01  2.000E+01  2.000E+04 -7.139E-02
   1   14   14     1    14    1.0446E+05 -1.5350E+03   1.0599E+05  0.000E+00  0.000E+00  0.000E+00  4.22060E+01  1.491E-01  2.000E+01  2.000E+04 -7.675E-02
   1   13   15     1    15    1.0599E+05 -1.6126E+03   1.0761E+05  0.000E+00  0.000E+00  0.000E+00  4.17300E+01  1.505E-01  2.000E+01  2.000E+04 -8.063E-02
   1   12   16     1    16    1.0761E+05 -1.6779E+03   1.0928E+05  0.000E+00  0.000E+00  0.000E+00  4.12541E+01  1.519E-01  2.000E+01  2.000E+04 -8.389E-02
   1   12   17     1    17    1.0928E+05 -1.0075E+03   1.1029E+05  0.000E+00  0.000E+00  0.000E+00  4.07780E+01  1.530E-01  2.000E+01  2.000E+04 -5.037E-02
   1   12   18     1    18    1.1029E+05 -7.9920E+02   1.1109E+05  0.000E+00  0.000E+00  0.000E+00  4.03015E+01  1.537E-01  2.000E+01  2.000E+04 -3.996E-02
   1   12   19     1    19    1.1109E+05 -2.4120E+02   1.1133E+05  0.000E+00  0.000E+00  0.000E+00  3.98246E+01  1.542E-01  2.000E+01  2.000E+04 -1.206E-02
   1   13   20     1    20    1.1133E+05 -1.4883E+02   1.1148E+05  0.000E+00  0.000E+00  0.000E+00  3.93475E+01  1.543E-01  2.000E+01  2.000E+04 -7.442E-03
   1   14   21     1    21    1.1148E+05 -8.2278E+02   1.1230E+05  0.000E+00  0.000E+00  0.000E+00  3.88706E+01  1.547E-01  2.000E+01  2.000E+04 -4.114E-02
   1   14   22     1    22    1.1230E+05  5.1839E+03   1.0712E+05  0.000E+00  0.000E+00  0.000E+00  3.83916E+01  1.529E-01  2.000E+01  2.000E+04  2.592E-01
   1    9   30     2     1    5.0000E+04 -3.0059E+02   5.0301E+04  0.000E+00  0.000E+00  0.000E+00  4.02411E+01  1.161E-01  2.000E+01  2.000E+04 -1.503E-02
   1    9   29     2     2    5.0301E+04 -5.7689E+02   5.0877E+04  0.000E+00  0.000E+00  0.000E+00  3.99917E+01  1.167E-01  2.000E+01  2.000E+04 -2.884E-02
   1    9   28     2     3    5.0877E+04 -7.6346E+02   5.1641E+04  0.000E+00  0.000E+00  0.000E+00  3.97426E+01  1.176E-01  2.000E+01  2.000E+04 -3.817E-02
   1    9   27     2     4    5.1641E+04 -1.4644E+03   5.3105E+04  0.000E+00  0.000E+00  0.000E+00  3.94941E+01  1.191E-01  2.000E+01  2.000E+04 -7.322E-02
   1   10   26     2     5    5.3105E+04 -4.8913E+02   5.3594E+04  0.000E+00  0.000E+00  0.000E+00  3.92455E+01  1.205E-01  2.000E+01  2.000E+04 -2.446E-02
   1   11   25     2     6    5.3594E+04  2.6636E+02   5.3328E+04  0.000E+00  0.000E+00  0.000E+00  3.89956E+01  1.206E-01  2.000E+01  2.000E+04  1.332E-02
   1   12   24     2     7    5.3328E+04  1.1367E+03   5.2191E+04  0.000E+00  0.000E+00  0.000E+00  3.87447E+01  1.197E-01  2.000E+01  2.000E+04  5.684E-02
   1   13   23     2     8    5.2191E+04  2.3557E+02   5.1956E+04  0.000E+00  0.000E+00  0.000E+00  3.84937E+01  1.187E-01  2.000E+01  2.000E+04  1.178E-02
   1   14   22     2     9    5.1956E+04  2.1938E+03   4.9762E+04  0.000E+00  0.000E+00  0.000E+00  3.82421E+01  1.171E-01  2.000E+01  2.000E+04  1.097E-01
   1   14   22     3     1    1.5688E+05 -8.3409E+03   1.6522E+05  0.000E+00  0.000E+00  0.000E+00  3.77153E+01  1.598E-01  2.000E+01  2.000E+04 -4.170E-01
   1   15   23     3     2    1.6522E+05 -5.0376E+02   1.6573E+05  0.000E+00  0.000E+00  0.000E+00  3.68290E+01  1.624E-01  2.000E+01  2.000E+04 -2.519E-02
   1   15   24     3     3    1.6573E+05 -2.5052E+02   1.6598E+05  0.000E+00  0.000E+00  0.000E+00  3.59404E+01  1.626E-01  2.000E+01  2.000E+04 -1.253E-02
   1   15   25     3     4    1.6598E+05 -2.3384E+02   1.6621E+05  0.000E+00  0.000E+00  0.000E+00  3.50516E+01  1.627E-01  2.000E+01  2.000E+04 -1.169E-02
   1   15   26     3     5    1.6621E+05 -2.4655E+02   1.6646E+05  0.000E+00  0.000E+00  0.000E+00  3.41629E+01  1.629E-01  2.000E+01  2.000E+04 -1.233E-02
   1   16   27     3     6    1.6646E+05 -8.0912E+01   1.6654E+05  0.000E+00  0.000E+00  0.000E+00  3.32741E+01  1.630E-01  2.000E+01  2.000E+04 -4.046E-03
   1   17   28     3     7    1.6654E+05  5.3829E+03   1.6115E+05  0.000E+00  0.000E+00  0.000E+00  3.23836E+01  1.614E-01  2.000E+01  2.000E+04  2.691E-01
   1   18   29     3     8    1.6115E+05  2.3057E+04   1.3810E+05  0.000E+00  0.000E+00  0.000E+00  3.14862E+01  1.529E-01  2.000E+01  2.000E+04  1.153E+00
   1   18   30     3     9    1.3810E+05  7.7994E+03   1.3030E+05  0.000E+00  0.000E+00  0.000E+00  3.05876E+01  1.432E-01  2.000E+01  2.000E+04  3.900E-01



1
              HEAD IN LAYER   1 AT END OF TIME STEP   1 IN STRESS PERIOD   12
  ---------------------------------------------------------------------------

          1      2      3      4      5      6      7      8      9     10
         11     12     13     14     15     16     17     18     19     20
         21     22     23     24     25     26     27     28     29     30
 .........................................................................
   1  ****** ****** ****** ****** ****** ****** ****** ****** ****** ******
      ****** ****** ****** ****** ****** ****** ****** ****** ****** ******
      ****** ****** ****** ****** ****** ****** ****** ****** ****** ******
   2  ****** ****** ****** ****** ****** ****** ****** ****** ****** ******
      ****** ****** ****** ****** ****** ****** ****** ****** ****** ******
      ****** ****** ****** ****** ****** ****** ****** ****** ****** ******
   3  ****** ****** ****** ****** ****** ****** ****** ****** ****** ******
      ****** ****** ****** ****** ****** ****** ****** ****** ****** ******
      ****** ****** ****** ****** ****** ****** ****** ****** ****** ******
   4  ****** ****** ****** ****** ****** ****** ****** ****** ****** ******
      ****** ****** ****** ****** ****** ****** ****** ****** ****** ******
      ****** ****** ****** ****** ****** ****** ****** ****** ****** ******
   5  ****** ****** ****** ****** ****** ****** ****** ****** ****** ******
      ****** ****** ****** ****** ****** ****** ****** ****** ****** ******
      ****** ****** ****** ****** ****** ****** ****** ****** ****** ******
   6  ****** ****** ****** ****** ****** ****** ****** ****** ****** ******
      ****** ****** ****** ****** ****** ****** ****** ****** ****** ******
      ****** ****** ****** ****** ****** ****** ****** ****** ****** ******
   7  ****** ****** ****** ****** ****** ****** ****** ****** ****** ******
      ****** ****** ****** ****** ****** ****** ****** ****** ****** ******
      ****** ****** ****** ****** ****** ****** ****** ****** ****** ******
   8  ****** ****** ****** ****** ****** ****** ****** ****** ****** ******
      ****** ****** ****** ****** ****** ****** ****** ****** ****** ******
      ****** ****** ****** ****** ****** ****** ****** ****** ****** ******
   9  ****** ****** ****** ****** ****** ****** ****** ****** ****** ******
      ****** ****** ****** ****** ****** ****** ****** ****** ****** ******
      ****** ****** ****** ****** ****** ****** ****** ****** ****** ******
  10  ****** ****** ****** ****** ****** ****** ****** ****** ****** ******
      ****** ****** ****** ****** ****** ****** ****** ****** ****** ******
      ****** ****** ****** ****** ****** ****** ****** ****** ****** ******
  11  ****** ****** ****** ****** ****** ****** ****** ****** ****** ******
      ****** ****** ****** ****** ****** ****** ****** ****** ****** ******
      ****** ****** ****** ****** ****** ****** ****** ****** ****** ******
  12  ****** ****** ****** ****** ****** ****** ****** ****** ****** ******
      ****** ****** ****** ****** ****** ****** ****** ****** ****** ******
      ****** ****** ****** ****** ****** ****** ****** ****** ****** ******
  13  ****** ****** ****** ****** ****** ****** ****** ****** ****** ******
      ****** ****** ****** ****** ****** ****** ****** ****** ****** ******
      ****** ****** ****** ****** ****** ****** ****** ****** ****** ******
  14  ****** ****** ****** ****** ****** ****** ****** ****** ****** ******
      ****** ****** ****** ****** ****** ****** ****** ****** ****** ******
      ****** ****** ****** ****** ****** ****** ****** ****** ****** ******
  15  ****** ****** ****** ****** ****** ****** ****** ****** ****** ******
      ****** ****** ****** ****** ****** ****** ****** ****** ****** ******
      ****** ****** ****** ****** ****** ****** ****** ****** ****** ******
  16  ****** ****** ****** ****** ****** ****** ****** ****** ****** ******
      ****** ****** ****** ****** ****** ****** ****** ****** ****** ******
      ****** ****** ****** ****** ****** ****** ****** ****** ****** ******
  17  ****** ****** ****** ****** ****** ****** ****** ****** ****** ******
      ****** ****** ****** ****** ****** ****** ****** ****** ****** ******
      ****** ****** ****** ****** ****** ****** ****** ****** ****** ******
  18  ****** ****** ****** ****** ****** ****** ****** ****** ****** ******
      ****** ****** ****** ****** ****** ****** ****** ****** ****** ******
      ****** ****** ****** ****** ****** ****** ****** ****** ****** ******
  19  ****** ****** ****** ****** ****** ****** ****** ****** ****** ******
      ****** ****** ****** ****** ****** ****** ****** ****** ****** ******
      ****** ****** ****** ****** ****** ****** ****** ****** ****** ******
  20  ****** ****** ****** ****** ****** ****** ****** ****** ****** ******
      ****** ****** ****** ****** ****** ****** ****** ****** ****** ******
      ****** ****** ****** ****** ****** ****** ****** ****** ****** ******
  21  ****** ****** ****** ****** ****** ****** ****** ****** ****** ******
      ****** ****** ****** ****** ****** ****** ****** ****** ****** ******
      ****** ****** ****** ****** ****** ****** ****** ****** ****** ******
  22  ****** ****** ****** ****** ****** ****** ****** ****** ****** ******
      ****** ****** ****** ****** ****** ****** ****** ****** ****** ******
      ****** ****** ****** ****** ****** ****** ****** ****** ****** ******
  23  ****** ****** ****** ****** ****** ****** ****** ****** ****** ******
      ****** ****** ****** ****** ****** ****** ****** ****** ****** ******
      ****** ****** ****** ****** ****** ****** ****** ****** ****** ******
  24  ****** ****** ****** ****** ****** ****** ****** ****** ****** ******
      ****** ****** ****** ****** ****** ****** ****** ****** ****** ******
      ****** ****** ****** ****** ****** ****** ****** ****** ****** ******
  25  ****** ****** ****** ****** ****** ****** ****** ****** ****** ******
      ****** ****** ****** ****** ****** ****** ****** ****** ****** ******
      ****** ****** ****** ****** ****** ****** ****** ****** ****** ******

 HEAD WILL BE SAVED ON UNIT   51 AT END OF TIME STEP    1, STRESS PERIOD   12
1
  VOLUMETRIC BUDGET FOR ENTIRE MODEL AT END OF TIME STEP    1, STRESS PERIOD  12
  ------------------------------------------------------------------------------

     CUMULATIVE VOLUMES      L**3       RATES FOR THIS TIME STEP      L**3/T
     ------------------                 ------------------------

           IN:                                      IN:
           ---                                      ---
             STORAGE =    35875322.2226               STORAGE =          15.6304
       CONSTANT HEAD =    32139984.6119         CONSTANT HEAD =       34636.2151
               WELLS =           0.0000                 WELLS =           0.0000
            RECHARGE =    26413200.0000              RECHARGE =       27600.0000
      STREAM LEAKAGE =    57915732.3750        STREAM LEAKAGE =       55907.8774

            TOTAL IN =   152344239.2095              TOTAL IN =      118159.7229

          OUT:                                     OUT:
          ----                                     ----
             STORAGE =     2614518.7183               STORAGE =        2986.5281
       CONSTANT HEAD =           0.0000         CONSTANT HEAD =           0.0000
               WELLS =    86469660.0217                 WELLS =       78967.7260
            RECHARGE =           0.0000              RECHARGE =           0.0000
      STREAM LEAKAGE =    63260062.4079        STREAM LEAKAGE =       36205.4663

           TOTAL OUT =   152344241.1478             TOTAL OUT =      118159.7205

            IN - OUT =          -1.9384              IN - OUT =       2.4423E-03

 PERCENT DISCREPANCY =          -0.00     PERCENT DISCREPANCY =           0.00






         TIME SUMMARY AT END OF TIME STEP    1 IN STRESS PERIOD   12
                    SECONDS     MINUTES      HOURS       DAYS        YEARS
                    -----------------------------------------------------------
   TIME STEP LENGTH 7.86240E+06 1.31040E+05  2184.0      91.000     0.24914    
 STRESS PERIOD TIME 7.86240E+06 1.31040E+05  2184.0      91.000     0.24914    
         TOTAL TIME 9.46080E+07 1.57680E+06  26280.      1095.0      2.9979    
1

 Run end date and time (yyyy/mm/dd hh:mm:ss): 2019/02/13 17:55:47
 Elapsed run time:  0.107 Seconds

