                                  MODFLOW-2005     
      U.S. GEOLOGICAL SURVEY MODULAR FINITE-DIFFERENCE GROUND-WATER FLOW MODEL
                            VERSION 1.11.00 8/8/2013

 LIST FILE: supply2.lst
                         UNIT   10

 OPENING ..\data\supply.dis
 FILE TYPE:DIS   UNIT   11   STATUS:OLD    
 FORMAT:FORMATTED              ACCESS:SEQUENTIAL          

 OPENING ..\data\supply.ba6
 FILE TYPE:BAS6   UNIT   12   STATUS:OLD    
 FORMAT:FORMATTED              ACCESS:SEQUENTIAL          

 OPENING ..\data\supply_het.bc6
 FILE TYPE:BCF6   UNIT   13   STATUS:OLD    
 FORMAT:FORMATTED              ACCESS:SEQUENTIAL          

 OPENING ..\data\supply.rch
 FILE TYPE:RCH   UNIT   15   STATUS:OLD    
 FORMAT:FORMATTED              ACCESS:SEQUENTIAL          

 OPENING ..\data\supply2.sfr
 FILE TYPE:SFR   UNIT   16   STATUS:OLD    
 FORMAT:FORMATTED              ACCESS:SEQUENTIAL          

 OPENING ..\data\supply.oc
 FILE TYPE:OC   UNIT   17   STATUS:OLD    
 FORMAT:FORMATTED              ACCESS:SEQUENTIAL          

 OPENING ..\data\supply.pcg
 FILE TYPE:PCG   UNIT   18   STATUS:OLD    
 FORMAT:FORMATTED              ACCESS:SEQUENTIAL          

 OPENING supply2.wel
 FILE TYPE:WEL   UNIT   19   STATUS:OLD    
 FORMAT:FORMATTED              ACCESS:SEQUENTIAL          

 OPENING supply2sf.cbc
 FILE TYPE:DATA(BINARY)   UNIT   50   STATUS:UNKNOWN
 FORMAT:BINARY                 ACCESS:SEQUENTIAL          

 OPENING supply2hd.bhd
 FILE TYPE:DATA(BINARY)   UNIT   51   STATUS:UNKNOWN
 FORMAT:BINARY                 ACCESS:SEQUENTIAL          

 BAS -- BASIC PACKAGE, VERSION 7, 5/2/2005 INPUT READ FROM UNIT   12
 
 MODFLOW was compiled using uniform precision
 Precision of REAL and DOUBLE PRECISION variables:          15

 DISCRETIZATION INPUT DATA READ FROM UNIT   11
    1 LAYERS        25 ROWS        30 COLUMNS
   12 STRESS PERIOD(S) IN SIMULATION
 MODEL TIME UNIT IS DAYS
 MODEL LENGTH UNIT IS UNDEFINED
  Confining bed flag for each layer:
   0

                     DELR =   200.000    

                     DELC =   200.000    

 TOP ELEVATION OF LAYER 1 =  100.0000    

   MODEL LAYER BOTTOM EL. =   0.00000     FOR LAYER   1


 STRESS PERIOD     LENGTH       TIME STEPS     MULTIPLIER FOR DELT    SS FLAG
 ----------------------------------------------------------------------------
        1         92.00000          1                    1.500         TR
        2         91.00000          1                    1.500         TR
        3         91.00000          1                    1.500         TR
        4         91.00000          1                    1.500         TR
        5         92.00000          1                    1.500         TR
        6         91.00000          1                    1.500         TR
        7         91.00000          1                    1.500         TR
        8         91.00000          1                    1.500         TR
        9         92.00000          1                    1.500         TR
       10         91.00000          1                    1.500         TR
       11         91.00000          1                    1.500         TR
       12         91.00000          1                    1.500         TR

 TRANSIENT SIMULATION



 
 #MODOFC transient water supply sample problem                                   
 #                                                                               
 THE FREE FORMAT OPTION HAS BEEN SELECTED



                     BOUNDARY ARRAY FOR LAYER   1
 READING ON UNIT   12 WITH FORMAT: (20I4)              

 AQUIFER HEAD WILL BE SET TO   0.0000     AT ALL NO-FLOW NODES (IBOUND=0).



                       INITIAL HEAD FOR LAYER   1
 READING ON UNIT   12 WITH FORMAT: (10F13.0)           

 OUTPUT CONTROL IS SPECIFIED ONLY AT TIME STEPS FOR WHICH OUTPUT IS DESIRED
 COMPACT CELL-BY-CELL BUDGET FILES WILL BE WRITTEN
 HEAD PRINT FORMAT CODE IS  18    DRAWDOWN PRINT FORMAT CODE IS   0
 HEADS WILL BE SAVED ON UNIT   51    DRAWDOWNS WILL BE SAVED ON UNIT    0

 BCF -- BLOCK-CENTERED FLOW PACKAGE, VERSION 7, 5/2/2005
         INPUT READ FROM UNIT 13
 TRANSIENT SIMULATION
 HEAD AT CELLS THAT CONVERT TO DRY=   0.0000    
 WETTING CAPABILITY IS NOT ACTIVE
      LAYER  LAYER-TYPE CODE     INTERBLOCK T
      --------------------------------------------
         1            0          0 -- HARMONIC    

 COLUMN TO ROW ANISOTROPY =  1.000000    

     PRIMARY STORAGE COEF =  5.000000E-02 FOR LAYER   1



               TRANSMIS. ALONG ROWS FOR LAYER   1
 READING ON UNIT   13 WITH FORMAT: (FREE)              

 WEL -- WELL PACKAGE, VERSION 7, 5/2/2005 INPUT READ FROM UNIT   19
 # Well package input file written by MMProc
 No named parameters
 MAXIMUM OF      4 ACTIVE WELLS AT ONE TIME


     0 Well parameters

 RCH -- RECHARGE PACKAGE, VERSION 7, 5/2/2005 INPUT READ FROM UNIT   15
 No named parameters
 OPTION 1 -- RECHARGE TO TOP LAYER


     0 Recharge parameters

 SFR7 -- STREAMFLOW ROUTING PACKAGE, VERSION 1.0.7, 2013-01-15
         INPUT READ FROM UNIT  16
 #  Supply2 test problem for GWM-VI
 #  The eighth entry in the first data line is ISTCB2 -
 #    Setting this to a negative number indicates that
 #    streamflows out of the reach will be saved to a
 #    binary file.  The absolute value of ISTCB2 is the
 #    unit to which unformatted flows will be written.
 #
 No named parameters
 Segment information will not be 
 read by reach
 No named parameters
 No specifed inflow files


 NUMBER OF STREAM REACHES IS   40

 NUMBER OF STREAM SEGMENTS IS    3

 NUMBER OF STREAM PARAMETERS IS    0

 NUMBER OF STREAM SEGMENTS DEFINED USING PARAMETERS IS              0

 MAXIMUM ERROR FOR STREAM LEAKAGE RATES IS  1.00E-04

 CONSTANT FOR MANNINGS EQUATION IS  1.2839E+05





   STREAM NETWORK DESCRIPTION: 

   LAYER    ROW    COL   SEGMENT   REACH     LENGTH
                          NUMBER   NUMBER    IN CELL        
   --------------------------------------------------
      1     13      1       1        1    2.0000E+02
      1     13      2       1        2    2.0000E+02
      1     14      3       1        3    2.0000E+02
      1     15      4       1        4    2.0000E+02
      1     16      5       1        5    2.0000E+02
      1     16      6       1        6    2.0000E+02
      1     16      7       1        7    2.0000E+02
      1     16      8       1        8    2.0000E+02
      1     16      9       1        9    2.0000E+02
      1     16     10       1       10    2.0000E+02
      1     16     11       1       11    2.0000E+02
      1     16     12       1       12    2.0000E+02
      1     15     13       1       13    2.0000E+02
      1     14     14       1       14    2.0000E+02
      1     13     15       1       15    2.0000E+02
      1     12     16       1       16    2.0000E+02
      1     12     17       1       17    2.0000E+02
      1     12     18       1       18    2.0000E+02
      1     12     19       1       19    2.0000E+02
      1     13     20       1       20    2.0000E+02
      1     14     21       1       21    2.0000E+02
      1     14     22       1       22    2.0000E+02
      1      9     30       2        1    2.0000E+02
      1      9     29       2        2    2.0000E+02
      1      9     28       2        3    2.0000E+02
      1      9     27       2        4    2.0000E+02
      1     10     26       2        5    2.0000E+02
      1     11     25       2        6    2.0000E+02
      1     12     24       2        7    2.0000E+02
      1     13     23       2        8    2.0000E+02
      1     14     22       2        9    2.0000E+02
      1     14     22       3        1    2.0000E+02
      1     15     23       3        2    2.0000E+02
      1     15     24       3        3    2.0000E+02
      1     15     25       3        4    2.0000E+02
      1     15     26       3        5    2.0000E+02
      1     16     27       3        6    2.0000E+02
      1     17     28       3        7    2.0000E+02
      1     18     29       3        8    2.0000E+02
      1     18     30       3        9    2.0000E+02




 PCG -- CONJUGATE-GRADIENT SOLUTION PACKAGE, VERSION 7, 5/2/2005
 MAXIMUM OF    500 CALLS OF SOLUTION ROUTINE
 MAXIMUM OF      5 INTERNAL ITERATIONS PER CALL TO SOLUTION ROUTINE
 MATRIX PRECONDITIONING TYPE :    1



                                    SOLUTION BY THE CONJUGATE-GRADIENT METHOD
                                   -------------------------------------------
                    MAXIMUM NUMBER OF CALLS TO PCG ROUTINE =      500
                        MAXIMUM ITERATIONS PER CALL TO PCG =        5
                               MATRIX PRECONDITIONING TYPE =        1
        RELAXATION FACTOR (ONLY USED WITH PRECOND. TYPE 1) =    0.10000E+01
 PARAMETER OF POLYNOMIAL PRECOND. = 2 (2) OR IS CALCULATED :        0
                         HEAD CHANGE CRITERION FOR CLOSURE =    0.10000E-05
                     RESIDUAL CHANGE CRITERION FOR CLOSURE =    0.10000E+01
            PCG HEAD AND RESIDUAL CHANGE PRINTOUT INTERVAL =        1
     PRINTING FROM SOLVER IS LIMITED(1) OR SUPPRESSED (>1) =        1
                            STEADY-STATE DAMPING PARAMETER =    0.10000E+01
                               TRANSIENT DAMPING PARAMETER =    0.10000E+01
1
                            STRESS PERIOD NO.    1, LENGTH =   92.00000    
                            -----------------------------------------------

                              NUMBER OF TIME STEPS =     1

                               MULTIPLIER FOR DELT =     1.500

                            INITIAL TIME STEP SIZE =   92.00000    

 WELL NO.  LAYER   ROW   COL   STRESS RATE         
 --------------------------------------------------
      1      1      8     26     -0.1072E+05
      2      1     11     23      -7775.    
      3      1      7     20      -8549.    
      4      1     17      2      -8344.    

      4 WELLS

                 RECHARGE =  5.000000E-04



 CLASSIFICATION & COUNT OF STREAM SEGMENTS BASED ON SOURCE OF INFLOW:

                HEADWATER     DIVERSION     RECEIVES TRIBUTARY FLOW
                ---------     ---------     -----------------------
                     2              0               1



                    INPUT DATA FOR EACH STREAM SEGMENT
 ---------------------------------------------------------------------------------------------

 SEGMENT    SEG.     INFLOW   OVERLAND   STREAM    STREAM   ICALC  OUTFLOW  DIVERSION PRIORITY
    NO.    LENGTH     RATE     RUNOFF      ET       PPT.    METH.  TO SEG.  FROM SEG.    NO.

      1  4.400E+03 1.000E+05 0.000E+00 0.000E+00 0.000E+00    1        3        0        0
      2  1.800E+03 5.000E+04 0.000E+00 0.000E+00 0.000E+00    1        3        0        0
      3  1.800E+03 0.000E+00 0.000E+00 0.000E+00 0.000E+00    1        0        0        0


         STREAMBED PROPERTIES AND STREAM DIMENSIONS

 SEGMENT     BED HYD. COND.      BED THICKNESS     ELEV.-TOP OF BED     WIDTH OF STREAM     DEPTH OF STREAM    STREAM ROUGHNESS
    No.     UPPER     LOWER     UPPER     LOWER     UPPER     LOWER     UPPER     LOWER     UPPER     LOWER   CHANNEL      BANK

     1  5.000E+00 5.000E+00 1.000E+00 1.000E+00 4.850E+01 3.800E+01 2.000E+01 2.000E+01                     5.000E-02
     2  5.000E+00 5.000E+00 1.000E+00 1.000E+00 4.025E+01 3.800E+01 2.000E+01 2.000E+01                     5.000E-02
     3  5.000E+00 5.000E+00 1.000E+00 1.000E+00 3.800E+01 3.000E+01 2.000E+01 2.000E+01                     5.000E-02



 
 SOLVING FOR HEAD 


     9 CALLS TO PCG ROUTINE FOR TIME STEP   1 IN STRESS PERIOD    1
    36 TOTAL ITERATIONS

 OUTPUT CONTROL FOR STRESS PERIOD    1   TIME STEP    1
    SAVE BUDGET
    SAVE HEAD FOR ALL LAYERS
    PRINT HEAD FOR ALL LAYERS
 UBDSV2 SAVING "STREAMFLOW OUT  " ON UNIT  50 AT TIME STEP  1, STRESS PERIOD   1



 STREAM LISTING     PERIOD      1   STEP        1

 LAYER ROW COL. STREAM  RCH.  FLOW INTO     FLOW TO   FLOW OUT OF   OVRLND.     DIRECT     STREAM       STREAM     STREAM     STREAM   STREAMBED  STREAMBED
                SEG.NO.  NO.  STRM. RCH.    AQUIFER    STRM. RCH.    RUNOFF     PRECIP       ET          HEAD       DEPTH      WIDTH   CONDCTNC.   GRADIENT

   1   13    1     1     1    1.0000E+05 -5.3258E+03   1.0533E+05  0.000E+00  0.000E+00  0.000E+00  4.84083E+01  1.470E-01  2.000E+01  2.000E+04 -2.663E-01
   1   13    2     1     2    1.0533E+05 -6.8257E+03   1.1215E+05  0.000E+00  0.000E+00  0.000E+00  4.79362E+01  1.521E-01  2.000E+01  2.000E+04 -3.413E-01
   1   14    3     1     3    1.1215E+05 -1.9426E+03   1.1409E+05  0.000E+00  0.000E+00  0.000E+00  4.74626E+01  1.558E-01  2.000E+01  2.000E+04 -9.713E-02
   1   15    4     1     4    1.1409E+05 -1.9552E+03   1.1605E+05  0.000E+00  0.000E+00  0.000E+00  4.69869E+01  1.574E-01  2.000E+01  2.000E+04 -9.776E-02
   1   16    5     1     5    1.1605E+05 -5.5312E+03   1.2158E+05  0.000E+00  0.000E+00  0.000E+00  4.65127E+01  1.604E-01  2.000E+01  2.000E+04 -2.766E-01
   1   16    6     1     6    1.2158E+05 -3.9430E+03   1.2552E+05  0.000E+00  0.000E+00  0.000E+00  4.60392E+01  1.642E-01  2.000E+01  2.000E+04 -1.972E-01
   1   16    7     1     7    1.2552E+05 -3.9461E+03   1.2947E+05  0.000E+00  0.000E+00  0.000E+00  4.55651E+01  1.673E-01  2.000E+01  2.000E+04 -1.973E-01
   1   16    8     1     8    1.2947E+05 -3.9814E+03   1.3345E+05  0.000E+00  0.000E+00  0.000E+00  4.50909E+01  1.705E-01  2.000E+01  2.000E+04 -1.991E-01
   1   16    9     1     9    1.3345E+05 -4.0141E+03   1.3746E+05  0.000E+00  0.000E+00  0.000E+00  4.46167E+01  1.735E-01  2.000E+01  2.000E+04 -2.007E-01
   1   16   10     1    10    1.3746E+05 -4.0384E+03   1.4150E+05  0.000E+00  0.000E+00  0.000E+00  4.41425E+01  1.766E-01  2.000E+01  2.000E+04 -2.019E-01
   1   16   11     1    11    1.4150E+05 -4.0919E+03   1.4560E+05  0.000E+00  0.000E+00  0.000E+00  4.36683E+01  1.797E-01  2.000E+01  2.000E+04 -2.046E-01
   1   16   12     1    12    1.4560E+05 -6.9840E+03   1.5258E+05  0.000E+00  0.000E+00  0.000E+00  4.31952E+01  1.838E-01  2.000E+01  2.000E+04 -3.492E-01
   1   15   13     1    13    1.5258E+05 -7.3104E+03   1.5989E+05  0.000E+00  0.000E+00  0.000E+00  4.27231E+01  1.891E-01  2.000E+01  2.000E+04 -3.655E-01
   1   14   14     1    14    1.5989E+05 -7.7920E+03   1.6768E+05  0.000E+00  0.000E+00  0.000E+00  4.22513E+01  1.945E-01  2.000E+01  2.000E+04 -3.896E-01
   1   13   15     1    15    1.6768E+05 -8.0904E+03   1.7577E+05  0.000E+00  0.000E+00  0.000E+00  4.17796E+01  2.001E-01  2.000E+01  2.000E+04 -4.045E-01
   1   12   16     1    16    1.7577E+05 -8.5671E+03   1.8434E+05  0.000E+00  0.000E+00  0.000E+00  4.13081E+01  2.059E-01  2.000E+01  2.000E+04 -4.284E-01
   1   12   17     1    17    1.8434E+05 -6.0028E+03   1.9034E+05  0.000E+00  0.000E+00  0.000E+00  4.08358E+01  2.108E-01  2.000E+01  2.000E+04 -3.001E-01
   1   12   18     1    18    1.9034E+05 -5.7276E+03   1.9607E+05  0.000E+00  0.000E+00  0.000E+00  4.03625E+01  2.148E-01  2.000E+01  2.000E+04 -2.864E-01
   1   12   19     1    19    1.9607E+05 -6.7626E+03   2.0283E+05  0.000E+00  0.000E+00  0.000E+00  3.98893E+01  2.189E-01  2.000E+01  2.000E+04 -3.381E-01
   1   13   20     1    20    2.0283E+05 -6.1361E+03   2.0897E+05  0.000E+00  0.000E+00  0.000E+00  3.94163E+01  2.231E-01  2.000E+01  2.000E+04 -3.068E-01
   1   14   21     1    21    2.0897E+05 -6.1311E+03   2.1510E+05  0.000E+00  0.000E+00  0.000E+00  3.89430E+01  2.271E-01  2.000E+01  2.000E+04 -3.066E-01
   1   14   22     1    22    2.1510E+05  3.8860E+03   2.1121E+05  0.000E+00  0.000E+00  0.000E+00  3.84664E+01  2.278E-01  2.000E+01  2.000E+04  1.943E-01
   1    9   30     2     1    5.0000E+04 -4.4765E+03   5.4476E+04  0.000E+00  0.000E+00  0.000E+00  4.02440E+01  1.190E-01  2.000E+01  2.000E+04 -2.238E-01
   1    9   29     2     2    5.4476E+04 -4.6408E+03   5.9117E+04  0.000E+00  0.000E+00  0.000E+00  4.00001E+01  1.251E-01  2.000E+01  2.000E+04 -2.320E-01
   1    9   28     2     3    5.9117E+04 -4.5193E+03   6.3637E+04  0.000E+00  0.000E+00  0.000E+00  3.97560E+01  1.310E-01  2.000E+01  2.000E+04 -2.260E-01
   1    9   27     2     4    6.3637E+04 -4.9713E+03   6.8608E+04  0.000E+00  0.000E+00  0.000E+00  3.95120E+01  1.370E-01  2.000E+01  2.000E+04 -2.486E-01
   1   10   26     2     5    6.8608E+04 -4.9247E+03   7.3532E+04  0.000E+00  0.000E+00  0.000E+00  3.92681E+01  1.431E-01  2.000E+01  2.000E+04 -2.462E-01
   1   11   25     2     6    7.3532E+04 -4.6969E+03   7.8229E+04  0.000E+00  0.000E+00  0.000E+00  3.90238E+01  1.488E-01  2.000E+01  2.000E+04 -2.348E-01
   1   12   24     2     7    7.8229E+04 -3.5770E+03   8.1806E+04  0.000E+00  0.000E+00  0.000E+00  3.87786E+01  1.536E-01  2.000E+01  2.000E+04 -1.788E-01
   1   13   23     2     8    8.1806E+04 -1.2882E+03   8.3094E+04  0.000E+00  0.000E+00  0.000E+00  3.85314E+01  1.564E-01  2.000E+01  2.000E+04 -6.441E-02
   1   14   22     2     9    8.3094E+04  1.9816E+02   8.2896E+04  0.000E+00  0.000E+00  0.000E+00  3.82820E+01  1.570E-01  2.000E+01  2.000E+04  9.908E-03
   1   14   22     3     1    2.9411E+05 -9.7002E+03   3.0381E+05  0.000E+00  0.000E+00  0.000E+00  3.77871E+01  2.316E-01  2.000E+01  2.000E+04 -4.850E-01
   1   15   23     3     2    3.0381E+05 -1.9884E+03   3.0580E+05  0.000E+00  0.000E+00  0.000E+00  3.69009E+01  2.343E-01  2.000E+01  2.000E+04 -9.942E-02
   1   15   24     3     3    3.0580E+05 -1.5292E+03   3.0733E+05  0.000E+00  0.000E+00  0.000E+00  3.60129E+01  2.351E-01  2.000E+01  2.000E+04 -7.646E-02
   1   15   25     3     4    3.0733E+05 -1.5787E+03   3.0891E+05  0.000E+00  0.000E+00  0.000E+00  3.51247E+01  2.358E-01  2.000E+01  2.000E+04 -7.893E-02
   1   15   26     3     5    3.0891E+05 -1.8818E+03   3.1079E+05  0.000E+00  0.000E+00  0.000E+00  3.42366E+01  2.366E-01  2.000E+01  2.000E+04 -9.409E-02
   1   16   27     3     6    3.1079E+05 -2.1640E+03   3.1295E+05  0.000E+00  0.000E+00  0.000E+00  3.33486E+01  2.375E-01  2.000E+01  2.000E+04 -1.082E-01
   1   17   28     3     7    3.1295E+05 -6.5769E+03   3.1953E+05  0.000E+00  0.000E+00  0.000E+00  3.24617E+01  2.395E-01  2.000E+01  2.000E+04 -3.288E-01
   1   18   29     3     8    3.1953E+05 -7.9944E+03   3.2752E+05  0.000E+00  0.000E+00  0.000E+00  3.15761E+01  2.428E-01  2.000E+01  2.000E+04 -3.997E-01
   1   18   30     3     9    3.2752E+05 -7.1740E+03   3.3470E+05  0.000E+00  0.000E+00  0.000E+00  3.06906E+01  2.462E-01  2.000E+01  2.000E+04 -3.587E-01



1
              HEAD IN LAYER   1 AT END OF TIME STEP   1 IN STRESS PERIOD    1
  ---------------------------------------------------------------------------

          1      2      3      4      5      6      7      8      9     10
         11     12     13     14     15     16     17     18     19     20
         21     22     23     24     25     26     27     28     29     30
 .........................................................................
   1  ****** ****** ****** ****** ****** ****** ****** ****** ****** ******
      ****** ****** ****** ****** ****** ****** ****** ****** ****** ******
      ****** ****** ****** ****** ****** ****** ****** ****** ****** ******
   2  ****** ****** ****** ****** ****** ****** ****** ****** ****** ******
      ****** ****** ****** ****** ****** ****** ****** ****** ****** ******
      ****** ****** ****** ****** ****** ****** ****** ****** ****** ******
   3  ****** ****** ****** ****** ****** ****** ****** ****** ****** ******
      ****** ****** ****** ****** ****** ****** ****** ****** ****** ******
      ****** ****** ****** ****** ****** ****** ****** ****** ****** ******
   4  ****** ****** ****** ****** ****** ****** ****** ****** ****** ******
      ****** ****** ****** ****** ****** ****** ****** ****** ****** ******
      ****** ****** ****** ****** ****** ****** ****** ****** ****** ******
   5  ****** ****** ****** ****** ****** ****** ****** ****** ****** ******
      ****** ****** ****** ****** ****** ****** ****** ****** ****** ******
      ****** ****** ****** ****** ****** ****** ****** ****** ****** ******
   6  ****** ****** ****** ****** ****** ****** ****** ****** ****** ******
      ****** ****** ****** ****** ****** ****** ****** ****** ****** ******
      ****** ****** ****** ****** ****** ****** ****** ****** ****** ******
   7  ****** ****** ****** ****** ****** ****** ****** ****** ****** ******
      ****** ****** ****** ****** ****** ****** ****** ****** ****** ******
      ****** ****** ****** ****** ****** ****** ****** ****** ****** ******
   8  ****** ****** ****** ****** ****** ****** ****** ****** ****** ******
      ****** ****** ****** ****** ****** ****** ****** ****** ****** ******
      ****** ****** ****** ****** ****** ****** ****** ****** ****** ******
   9  ****** ****** ****** ****** ****** ****** ****** ****** ****** ******
      ****** ****** ****** ****** ****** ****** ****** ****** ****** ******
      ****** ****** ****** ****** ****** ****** ****** ****** ****** ******
  10  ****** ****** ****** ****** ****** ****** ****** ****** ****** ******
      ****** ****** ****** ****** ****** ****** ****** ****** ****** ******
      ****** ****** ****** ****** ****** ****** ****** ****** ****** ******
  11  ****** ****** ****** ****** ****** ****** ****** ****** ****** ******
      ****** ****** ****** ****** ****** ****** ****** ****** ****** ******
      ****** ****** ****** ****** ****** ****** ****** ****** ****** ******
  12  ****** ****** ****** ****** ****** ****** ****** ****** ****** ******
      ****** ****** ****** ****** ****** ****** ****** ****** ****** ******
      ****** ****** ****** ****** ****** ****** ****** ****** ****** ******
  13  ****** ****** ****** ****** ****** ****** ****** ****** ****** ******
      ****** ****** ****** ****** ****** ****** ****** ****** ****** ******
      ****** ****** ****** ****** ****** ****** ****** ****** ****** ******
  14  ****** ****** ****** ****** ****** ****** ****** ****** ****** ******
      ****** ****** ****** ****** ****** ****** ****** ****** ****** ******
      ****** ****** ****** ****** ****** ****** ****** ****** ****** ******
  15  ****** ****** ****** ****** ****** ****** ****** ****** ****** ******
      ****** ****** ****** ****** ****** ****** ****** ****** ****** ******
      ****** ****** ****** ****** ****** ****** ****** ****** ****** ******
  16  ****** ****** ****** ****** ****** ****** ****** ****** ****** ******
      ****** ****** ****** ****** ****** ****** ****** ****** ****** ******
      ****** ****** ****** ****** ****** ****** ****** ****** ****** ******
  17  ****** ****** ****** ****** ****** ****** ****** ****** ****** ******
      ****** ****** ****** ****** ****** ****** ****** ****** ****** ******
      ****** ****** ****** ****** ****** ****** ****** ****** ****** ******
  18  ****** ****** ****** ****** ****** ****** ****** ****** ****** ******
      ****** ****** ****** ****** ****** ****** ****** ****** ****** ******
      ****** ****** ****** ****** ****** ****** ****** ****** ****** ******
  19  ****** ****** ****** ****** ****** ****** ****** ****** ****** ******
      ****** ****** ****** ****** ****** ****** ****** ****** ****** ******
      ****** ****** ****** ****** ****** ****** ****** ****** ****** ******
  20  ****** ****** ****** ****** ****** ****** ****** ****** ****** ******
      ****** ****** ****** ****** ****** ****** ****** ****** ****** ******
      ****** ****** ****** ****** ****** ****** ****** ****** ****** ******
  21  ****** ****** ****** ****** ****** ****** ****** ****** ****** ******
      ****** ****** ****** ****** ****** ****** ****** ****** ****** ******
      ****** ****** ****** ****** ****** ****** ****** ****** ****** ******
  22  ****** ****** ****** ****** ****** ****** ****** ****** ****** ******
      ****** ****** ****** ****** ****** ****** ****** ****** ****** ******
      ****** ****** ****** ****** ****** ****** ****** ****** ****** ******
  23  ****** ****** ****** ****** ****** ****** ****** ****** ****** ******
      ****** ****** ****** ****** ****** ****** ****** ****** ****** ******
      ****** ****** ****** ****** ****** ****** ****** ****** ****** ******
  24  ****** ****** ****** ****** ****** ****** ****** ****** ****** ******
      ****** ****** ****** ****** ****** ****** ****** ****** ****** ******
      ****** ****** ****** ****** ****** ****** ****** ****** ****** ******
  25  ****** ****** ****** ****** ****** ****** ****** ****** ****** ******
      ****** ****** ****** ****** ****** ****** ****** ****** ****** ******
      ****** ****** ****** ****** ****** ****** ****** ****** ****** ******

 HEAD WILL BE SAVED ON UNIT   51 AT END OF TIME STEP    1, STRESS PERIOD    1
1
  VOLUMETRIC BUDGET FOR ENTIRE MODEL AT END OF TIME STEP    1, STRESS PERIOD   1
  ------------------------------------------------------------------------------

     CUMULATIVE VOLUMES      L**3       RATES FOR THIS TIME STEP      L**3/T
     ------------------                 ------------------------

           IN:                                      IN:
           ---                                      ---
             STORAGE =    17819669.0504               STORAGE =      193692.0549
       CONSTANT HEAD =     1158878.1706         CONSTANT HEAD =       12596.5019
               WELLS =           0.0000                 WELLS =           0.0000
            RECHARGE =     1269600.0000              RECHARGE =       13800.0000
      STREAM LEAKAGE =      375743.6737        STREAM LEAKAGE =        4084.1704

            TOTAL IN =    20623890.8946              TOTAL IN =      224172.7271

          OUT:                                     OUT:
          ----                                     ----
             STORAGE =           0.0000               STORAGE =           0.0000
       CONSTANT HEAD =           0.0000         CONSTANT HEAD =           0.0000
               WELLS =     3256019.4633                 WELLS =       35391.5159
            RECHARGE =           0.0000              RECHARGE =           0.0000
      STREAM LEAKAGE =    17367871.7314        STREAM LEAKAGE =      188781.2145

           TOTAL OUT =    20623891.1947             TOTAL OUT =      224172.7304

            IN - OUT =          -0.3001              IN - OUT =      -3.2617E-03

 PERCENT DISCREPANCY =          -0.00     PERCENT DISCREPANCY =          -0.00






         TIME SUMMARY AT END OF TIME STEP    1 IN STRESS PERIOD    1
                    SECONDS     MINUTES      HOURS       DAYS        YEARS
                    -----------------------------------------------------------
   TIME STEP LENGTH 7.94880E+06 1.32480E+05  2208.0      92.000     0.25188    
 STRESS PERIOD TIME 7.94880E+06 1.32480E+05  2208.0      92.000     0.25188    
         TOTAL TIME 7.94880E+06 1.32480E+05  2208.0      92.000     0.25188    
1
1
                            STRESS PERIOD NO.    2, LENGTH =   91.00000    
                            -----------------------------------------------

                              NUMBER OF TIME STEPS =     1

                               MULTIPLIER FOR DELT =     1.500

                            INITIAL TIME STEP SIZE =   91.00000    

 WELL NO.  LAYER   ROW   COL   STRESS RATE         
 --------------------------------------------------
      1      1      8     26     -0.1072E+05
      2      1     11     23      -7775.    
      3      1      7     20      -8549.    
      4      1     17      2      -8344.    

      4 WELLS

                 RECHARGE =  2.000000E-03

 REUSING STREAM SEGMENT DATA FROM LAST STRESS PERIOD
 
 SOLVING FOR HEAD 


     7 CALLS TO PCG ROUTINE FOR TIME STEP   1 IN STRESS PERIOD    2
    27 TOTAL ITERATIONS

 OUTPUT CONTROL FOR STRESS PERIOD    2   TIME STEP    1
    SAVE BUDGET
    SAVE HEAD FOR ALL LAYERS
    PRINT HEAD FOR ALL LAYERS
 UBDSV2 SAVING "STREAMFLOW OUT  " ON UNIT  50 AT TIME STEP  1, STRESS PERIOD   2



 STREAM LISTING     PERIOD      2   STEP        1

 LAYER ROW COL. STREAM  RCH.  FLOW INTO     FLOW TO   FLOW OUT OF   OVRLND.     DIRECT     STREAM       STREAM     STREAM     STREAM   STREAMBED  STREAMBED
                SEG.NO.  NO.  STRM. RCH.    AQUIFER    STRM. RCH.    RUNOFF     PRECIP       ET          HEAD       DEPTH      WIDTH   CONDCTNC.   GRADIENT

   1   13    1     1     1    1.0000E+05 -2.9794E+03   1.0298E+05  0.000E+00  0.000E+00  0.000E+00  4.84073E+01  1.459E-01  2.000E+01  2.000E+04 -1.490E-01
   1   13    2     1     2    1.0298E+05 -4.2844E+03   1.0726E+05  0.000E+00  0.000E+00  0.000E+00  4.79331E+01  1.491E-01  2.000E+01  2.000E+04 -2.142E-01
   1   14    3     1     3    1.0726E+05 -7.8278E+02   1.0805E+05  0.000E+00  0.000E+00  0.000E+00  4.74580E+01  1.512E-01  2.000E+01  2.000E+04 -3.914E-02
   1   15    4     1     4    1.0805E+05 -7.3558E+02   1.0878E+05  0.000E+00  0.000E+00  0.000E+00  4.69814E+01  1.518E-01  2.000E+01  2.000E+04 -3.678E-02
   1   16    5     1     5    1.0878E+05 -2.0836E+03   1.1087E+05  0.000E+00  0.000E+00  0.000E+00  4.65053E+01  1.530E-01  2.000E+01  2.000E+04 -1.042E-01
   1   16    6     1     6    1.1087E+05 -1.9888E+03   1.1285E+05  0.000E+00  0.000E+00  0.000E+00  4.60297E+01  1.547E-01  2.000E+01  2.000E+04 -9.944E-02
   1   16    7     1     7    1.1285E+05 -2.1174E+03   1.1497E+05  0.000E+00  0.000E+00  0.000E+00  4.55541E+01  1.564E-01  2.000E+01  2.000E+04 -1.059E-01
   1   16    8     1     8    1.1497E+05 -2.1951E+03   1.1717E+05  0.000E+00  0.000E+00  0.000E+00  4.50786E+01  1.582E-01  2.000E+01  2.000E+04 -1.098E-01
   1   16    9     1     9    1.1717E+05 -2.2390E+03   1.1941E+05  0.000E+00  0.000E+00  0.000E+00  4.46032E+01  1.600E-01  2.000E+01  2.000E+04 -1.120E-01
   1   16   10     1    10    1.1941E+05 -2.2573E+03   1.2166E+05  0.000E+00  0.000E+00  0.000E+00  4.41277E+01  1.618E-01  2.000E+01  2.000E+04 -1.129E-01
   1   16   11     1    11    1.2166E+05 -2.2934E+03   1.2396E+05  0.000E+00  0.000E+00  0.000E+00  4.36523E+01  1.636E-01  2.000E+01  2.000E+04 -1.147E-01
   1   16   12     1    12    1.2396E+05 -4.0907E+03   1.2805E+05  0.000E+00  0.000E+00  0.000E+00  4.31775E+01  1.662E-01  2.000E+01  2.000E+04 -2.045E-01
   1   15   13     1    13    1.2805E+05 -4.0821E+03   1.3213E+05  0.000E+00  0.000E+00  0.000E+00  4.27035E+01  1.694E-01  2.000E+01  2.000E+04 -2.041E-01
   1   14   14     1    14    1.3213E+05 -4.4391E+03   1.3657E+05  0.000E+00  0.000E+00  0.000E+00  4.22295E+01  1.727E-01  2.000E+01  2.000E+04 -2.220E-01
   1   13   15     1    15    1.3657E+05 -4.7175E+03   1.4129E+05  0.000E+00  0.000E+00  0.000E+00  4.17557E+01  1.762E-01  2.000E+01  2.000E+04 -2.359E-01
   1   12   16     1    16    1.4129E+05 -5.2975E+03   1.4658E+05  0.000E+00  0.000E+00  0.000E+00  4.12823E+01  1.800E-01  2.000E+01  2.000E+04 -2.649E-01
   1   12   17     1    17    1.4658E+05 -3.3961E+03   1.4998E+05  0.000E+00  0.000E+00  0.000E+00  4.08082E+01  1.832E-01  2.000E+01  2.000E+04 -1.698E-01
   1   12   18     1    18    1.4998E+05 -3.0846E+03   1.5306E+05  0.000E+00  0.000E+00  0.000E+00  4.03333E+01  1.856E-01  2.000E+01  2.000E+04 -1.542E-01
   1   12   19     1    19    1.5306E+05 -3.3530E+03   1.5642E+05  0.000E+00  0.000E+00  0.000E+00  3.98584E+01  1.880E-01  2.000E+01  2.000E+04 -1.676E-01
   1   13   20     1    20    1.5642E+05 -2.8695E+03   1.5929E+05  0.000E+00  0.000E+00  0.000E+00  3.93834E+01  1.902E-01  2.000E+01  2.000E+04 -1.435E-01
   1   14   21     1    21    1.5929E+05 -3.3754E+03   1.6266E+05  0.000E+00  0.000E+00  0.000E+00  3.89084E+01  1.925E-01  2.000E+01  2.000E+04 -1.688E-01
   1   14   22     1    22    1.6266E+05  4.6893E+03   1.5797E+05  0.000E+00  0.000E+00  0.000E+00  3.84306E+01  1.920E-01  2.000E+01  2.000E+04  2.345E-01
   1    9   30     2     1    5.0000E+04 -1.5928E+03   5.1593E+04  0.000E+00  0.000E+00  0.000E+00  4.02420E+01  1.170E-01  2.000E+01  2.000E+04 -7.964E-02
   1    9   29     2     2    5.1593E+04 -1.7521E+03   5.3345E+04  0.000E+00  0.000E+00  0.000E+00  3.99943E+01  1.193E-01  2.000E+01  2.000E+04 -8.761E-02
   1    9   28     2     3    5.3345E+04 -1.6004E+03   5.4945E+04  0.000E+00  0.000E+00  0.000E+00  3.97465E+01  1.215E-01  2.000E+01  2.000E+04 -8.002E-02
   1    9   27     2     4    5.4945E+04 -1.0004E+03   5.5946E+04  0.000E+00  0.000E+00  0.000E+00  3.94983E+01  1.233E-01  2.000E+01  2.000E+04 -5.002E-02
   1   10   26     2     5    5.5946E+04 -9.2231E+02   5.6868E+04  0.000E+00  0.000E+00  0.000E+00  3.92496E+01  1.246E-01  2.000E+01  2.000E+04 -4.612E-02
   1   11   25     2     6    5.6868E+04 -8.9564E+02   5.7764E+04  0.000E+00  0.000E+00  0.000E+00  3.90008E+01  1.258E-01  2.000E+01  2.000E+04 -4.478E-02
   1   12   24     2     7    5.7764E+04 -1.2975E+02   5.7893E+04  0.000E+00  0.000E+00  0.000E+00  3.87514E+01  1.264E-01  2.000E+01  2.000E+04 -6.487E-03
   1   13   23     2     8    5.7893E+04 -1.9299E+02   5.8086E+04  0.000E+00  0.000E+00  0.000E+00  3.85016E+01  1.266E-01  2.000E+01  2.000E+04 -9.649E-03
   1   14   22     2     9    5.8086E+04  1.0975E+03   5.6989E+04  0.000E+00  0.000E+00  0.000E+00  3.82511E+01  1.261E-01  2.000E+01  2.000E+04  5.488E-02
   1   14   22     3     1    2.1496E+05 -8.9654E+03   2.2393E+05  0.000E+00  0.000E+00  0.000E+00  3.77479E+01  1.924E-01  2.000E+01  2.000E+04 -4.483E-01
   1   15   23     3     2    2.2393E+05 -1.0539E+03   2.2498E+05  0.000E+00  0.000E+00  0.000E+00  3.68616E+01  1.950E-01  2.000E+01  2.000E+04 -5.269E-02
   1   15   24     3     3    2.2498E+05 -6.6409E+02   2.2565E+05  0.000E+00  0.000E+00  0.000E+00  3.59732E+01  1.954E-01  2.000E+01  2.000E+04 -3.320E-02
   1   15   25     3     4    2.2565E+05 -6.6997E+02   2.2632E+05  0.000E+00  0.000E+00  0.000E+00  3.50847E+01  1.958E-01  2.000E+01  2.000E+04 -3.350E-02
   1   15   26     3     5    2.2632E+05 -7.7100E+02   2.2709E+05  0.000E+00  0.000E+00  0.000E+00  3.41961E+01  1.961E-01  2.000E+01  2.000E+04 -3.855E-02
   1   16   27     3     6    2.2709E+05 -8.9752E+02   2.2798E+05  0.000E+00  0.000E+00  0.000E+00  3.33077E+01  1.966E-01  2.000E+01  2.000E+04 -4.488E-02
   1   17   28     3     7    2.2798E+05 -3.2533E+03   2.3124E+05  0.000E+00  0.000E+00  0.000E+00  3.24199E+01  1.976E-01  2.000E+01  2.000E+04 -1.627E-01
   1   18   29     3     8    2.3124E+05 -5.0563E+03   2.3629E+05  0.000E+00  0.000E+00  0.000E+00  3.15331E+01  1.998E-01  2.000E+01  2.000E+04 -2.528E-01
   1   18   30     3     9    2.3629E+05 -4.6837E+03   2.4098E+05  0.000E+00  0.000E+00  0.000E+00  3.06467E+01  2.023E-01  2.000E+01  2.000E+04 -2.342E-01



1
              HEAD IN LAYER   1 AT END OF TIME STEP   1 IN STRESS PERIOD    2
  ---------------------------------------------------------------------------

          1      2      3      4      5      6      7      8      9     10
         11     12     13     14     15     16     17     18     19     20
         21     22     23     24     25     26     27     28     29     30
 .........................................................................
   1  ****** ****** ****** ****** ****** ****** ****** ****** ****** ******
      ****** ****** ****** ****** ****** ****** ****** ****** ****** ******
      ****** ****** ****** ****** ****** ****** ****** ****** ****** ******
   2  ****** ****** ****** ****** ****** ****** ****** ****** ****** ******
      ****** ****** ****** ****** ****** ****** ****** ****** ****** ******
      ****** ****** ****** ****** ****** ****** ****** ****** ****** ******
   3  ****** ****** ****** ****** ****** ****** ****** ****** ****** ******
      ****** ****** ****** ****** ****** ****** ****** ****** ****** ******
      ****** ****** ****** ****** ****** ****** ****** ****** ****** ******
   4  ****** ****** ****** ****** ****** ****** ****** ****** ****** ******
      ****** ****** ****** ****** ****** ****** ****** ****** ****** ******
      ****** ****** ****** ****** ****** ****** ****** ****** ****** ******
   5  ****** ****** ****** ****** ****** ****** ****** ****** ****** ******
      ****** ****** ****** ****** ****** ****** ****** ****** ****** ******
      ****** ****** ****** ****** ****** ****** ****** ****** ****** ******
   6  ****** ****** ****** ****** ****** ****** ****** ****** ****** ******
      ****** ****** ****** ****** ****** ****** ****** ****** ****** ******
      ****** ****** ****** ****** ****** ****** ****** ****** ****** ******
   7  ****** ****** ****** ****** ****** ****** ****** ****** ****** ******
      ****** ****** ****** ****** ****** ****** ****** ****** ****** ******
      ****** ****** ****** ****** ****** ****** ****** ****** ****** ******
   8  ****** ****** ****** ****** ****** ****** ****** ****** ****** ******
      ****** ****** ****** ****** ****** ****** ****** ****** ****** ******
      ****** ****** ****** ****** ****** ****** ****** ****** ****** ******
   9  ****** ****** ****** ****** ****** ****** ****** ****** ****** ******
      ****** ****** ****** ****** ****** ****** ****** ****** ****** ******
      ****** ****** ****** ****** ****** ****** ****** ****** ****** ******
  10  ****** ****** ****** ****** ****** ****** ****** ****** ****** ******
      ****** ****** ****** ****** ****** ****** ****** ****** ****** ******
      ****** ****** ****** ****** ****** ****** ****** ****** ****** ******
  11  ****** ****** ****** ****** ****** ****** ****** ****** ****** ******
      ****** ****** ****** ****** ****** ****** ****** ****** ****** ******
      ****** ****** ****** ****** ****** ****** ****** ****** ****** ******
  12  ****** ****** ****** ****** ****** ****** ****** ****** ****** ******
      ****** ****** ****** ****** ****** ****** ****** ****** ****** ******
      ****** ****** ****** ****** ****** ****** ****** ****** ****** ******
  13  ****** ****** ****** ****** ****** ****** ****** ****** ****** ******
      ****** ****** ****** ****** ****** ****** ****** ****** ****** ******
      ****** ****** ****** ****** ****** ****** ****** ****** ****** ******
  14  ****** ****** ****** ****** ****** ****** ****** ****** ****** ******
      ****** ****** ****** ****** ****** ****** ****** ****** ****** ******
      ****** ****** ****** ****** ****** ****** ****** ****** ****** ******
  15  ****** ****** ****** ****** ****** ****** ****** ****** ****** ******
      ****** ****** ****** ****** ****** ****** ****** ****** ****** ******
      ****** ****** ****** ****** ****** ****** ****** ****** ****** ******
  16  ****** ****** ****** ****** ****** ****** ****** ****** ****** ******
      ****** ****** ****** ****** ****** ****** ****** ****** ****** ******
      ****** ****** ****** ****** ****** ****** ****** ****** ****** ******
  17  ****** ****** ****** ****** ****** ****** ****** ****** ****** ******
      ****** ****** ****** ****** ****** ****** ****** ****** ****** ******
      ****** ****** ****** ****** ****** ****** ****** ****** ****** ******
  18  ****** ****** ****** ****** ****** ****** ****** ****** ****** ******
      ****** ****** ****** ****** ****** ****** ****** ****** ****** ******
      ****** ****** ****** ****** ****** ****** ****** ****** ****** ******
  19  ****** ****** ****** ****** ****** ****** ****** ****** ****** ******
      ****** ****** ****** ****** ****** ****** ****** ****** ****** ******
      ****** ****** ****** ****** ****** ****** ****** ****** ****** ******
  20  ****** ****** ****** ****** ****** ****** ****** ****** ****** ******
      ****** ****** ****** ****** ****** ****** ****** ****** ****** ******
      ****** ****** ****** ****** ****** ****** ****** ****** ****** ******
  21  ****** ****** ****** ****** ****** ****** ****** ****** ****** ******
      ****** ****** ****** ****** ****** ****** ****** ****** ****** ******
      ****** ****** ****** ****** ****** ****** ****** ****** ****** ******
  22  ****** ****** ****** ****** ****** ****** ****** ****** ****** ******
      ****** ****** ****** ****** ****** ****** ****** ****** ****** ******
      ****** ****** ****** ****** ****** ****** ****** ****** ****** ******
  23  ****** ****** ****** ****** ****** ****** ****** ****** ****** ******
      ****** ****** ****** ****** ****** ****** ****** ****** ****** ******
      ****** ****** ****** ****** ****** ****** ****** ****** ****** ******
  24  ****** ****** ****** ****** ****** ****** ****** ****** ****** ******
      ****** ****** ****** ****** ****** ****** ****** ****** ****** ******
      ****** ****** ****** ****** ****** ****** ****** ****** ****** ******
  25  ****** ****** ****** ****** ****** ****** ****** ****** ****** ******
      ****** ****** ****** ****** ****** ****** ****** ****** ****** ******
      ****** ****** ****** ****** ****** ****** ****** ****** ****** ******

 HEAD WILL BE SAVED ON UNIT   51 AT END OF TIME STEP    1, STRESS PERIOD    2
1
  VOLUMETRIC BUDGET FOR ENTIRE MODEL AT END OF TIME STEP    1, STRESS PERIOD   2
  ------------------------------------------------------------------------------

     CUMULATIVE VOLUMES      L**3       RATES FOR THIS TIME STEP      L**3/T
     ------------------                 ------------------------

           IN:                                      IN:
           ---                                      ---
             STORAGE =    22732056.1640               STORAGE =       53982.2760
       CONSTANT HEAD =     2722817.9195         CONSTANT HEAD =       17186.1511
               WELLS =           0.0000                 WELLS =           0.0000
            RECHARGE =     6292800.0000              RECHARGE =       55200.0000
      STREAM LEAKAGE =      902346.6602        STREAM LEAKAGE =        5786.8460

            TOTAL IN =    32650020.7437              TOTAL IN =      132155.2731

          OUT:                                     OUT:
          ----                                     ----
             STORAGE =           0.0000               STORAGE =           0.0000
       CONSTANT HEAD =           0.0000         CONSTANT HEAD =           0.0000
               WELLS =     6476647.4106                 WELLS =       35391.5159
            RECHARGE =           0.0000              RECHARGE =           0.0000
      STREAM LEAKAGE =    26173374.6333        STREAM LEAKAGE =       96763.7682

           TOTAL OUT =    32650022.0439             TOTAL OUT =      132155.2841

            IN - OUT =          -1.3003              IN - OUT =      -1.0991E-02

 PERCENT DISCREPANCY =          -0.00     PERCENT DISCREPANCY =          -0.00






         TIME SUMMARY AT END OF TIME STEP    1 IN STRESS PERIOD    2
                    SECONDS     MINUTES      HOURS       DAYS        YEARS
                    -----------------------------------------------------------
   TIME STEP LENGTH 7.86240E+06 1.31040E+05  2184.0      91.000     0.24914    
 STRESS PERIOD TIME 7.86240E+06 1.31040E+05  2184.0      91.000     0.24914    
         TOTAL TIME 1.58112E+07 2.63520E+05  4392.0      183.00     0.50103    
1
1
                            STRESS PERIOD NO.    3, LENGTH =   91.00000    
                            -----------------------------------------------

                              NUMBER OF TIME STEPS =     1

                               MULTIPLIER FOR DELT =     1.500

                            INITIAL TIME STEP SIZE =   91.00000    

 WELL NO.  LAYER   ROW   COL   STRESS RATE         
 --------------------------------------------------
      1      1      8     26     -0.1072E+05
      2      1     11     23      -7775.    
      3      1      7     20      -8549.    
      4      1     17      2      -8344.    

      4 WELLS

                 RECHARGE =   0.00000    

 REUSING STREAM SEGMENT DATA FROM LAST STRESS PERIOD
 
 SOLVING FOR HEAD 


     7 CALLS TO PCG ROUTINE FOR TIME STEP   1 IN STRESS PERIOD    3
    27 TOTAL ITERATIONS

 OUTPUT CONTROL FOR STRESS PERIOD    3   TIME STEP    1
    SAVE BUDGET
    SAVE HEAD FOR ALL LAYERS
    PRINT HEAD FOR ALL LAYERS
 UBDSV2 SAVING "STREAMFLOW OUT  " ON UNIT  50 AT TIME STEP  1, STRESS PERIOD   3



 STREAM LISTING     PERIOD      3   STEP        1

 LAYER ROW COL. STREAM  RCH.  FLOW INTO     FLOW TO   FLOW OUT OF   OVRLND.     DIRECT     STREAM       STREAM     STREAM     STREAM   STREAMBED  STREAMBED
                SEG.NO.  NO.  STRM. RCH.    AQUIFER    STRM. RCH.    RUNOFF     PRECIP       ET          HEAD       DEPTH      WIDTH   CONDCTNC.   GRADIENT

   1   13    1     1     1    1.0000E+05 -1.6618E+03   1.0166E+05  0.000E+00  0.000E+00  0.000E+00  4.84067E+01  1.454E-01  2.000E+01  2.000E+04 -8.309E-02
   1   13    2     1     2    1.0166E+05 -2.8170E+03   1.0448E+05  0.000E+00  0.000E+00  0.000E+00  4.79314E+01  1.473E-01  2.000E+01  2.000E+04 -1.409E-01
   1   14    3     1     3    1.0448E+05 -2.9898E+02   1.0478E+05  0.000E+00  0.000E+00  0.000E+00  4.74555E+01  1.486E-01  2.000E+01  2.000E+04 -1.495E-02
   1   15    4     1     4    1.0478E+05 -2.0113E+02   1.0498E+05  0.000E+00  0.000E+00  0.000E+00  4.69784E+01  1.488E-01  2.000E+01  2.000E+04 -1.006E-02
   1   16    5     1     5    1.0498E+05 -1.1006E+02   1.0509E+05  0.000E+00  0.000E+00  0.000E+00  4.65013E+01  1.490E-01  2.000E+01  2.000E+04 -5.503E-03
   1   16    6     1     6    1.0509E+05 -9.2082E+02   1.0601E+05  0.000E+00  0.000E+00  0.000E+00  4.60244E+01  1.494E-01  2.000E+01  2.000E+04 -4.604E-02
   1   16    7     1     7    1.0601E+05 -1.1257E+03   1.0714E+05  0.000E+00  0.000E+00  0.000E+00  4.55480E+01  1.503E-01  2.000E+01  2.000E+04 -5.629E-02
   1   16    8     1     8    1.0714E+05 -1.2329E+03   1.0837E+05  0.000E+00  0.000E+00  0.000E+00  4.50717E+01  1.513E-01  2.000E+01  2.000E+04 -6.165E-02
   1   16    9     1     9    1.0837E+05 -1.2902E+03   1.0966E+05  0.000E+00  0.000E+00  0.000E+00  4.45955E+01  1.523E-01  2.000E+01  2.000E+04 -6.451E-02
   1   16   10     1    10    1.0966E+05 -1.3160E+03   1.1097E+05  0.000E+00  0.000E+00  0.000E+00  4.41193E+01  1.534E-01  2.000E+01  2.000E+04 -6.580E-02
   1   16   11     1    11    1.1097E+05 -1.3524E+03   1.1233E+05  0.000E+00  0.000E+00  0.000E+00  4.36432E+01  1.545E-01  2.000E+01  2.000E+04 -6.762E-02
   1   16   12     1    12    1.1233E+05 -2.4704E+03   1.1480E+05  0.000E+00  0.000E+00  0.000E+00  4.31675E+01  1.561E-01  2.000E+01  2.000E+04 -1.235E-01
   1   15   13     1    13    1.1480E+05 -2.4264E+03   1.1722E+05  0.000E+00  0.000E+00  0.000E+00  4.26922E+01  1.581E-01  2.000E+01  2.000E+04 -1.213E-01
   1   14   14     1    14    1.1722E+05 -2.7306E+03   1.1995E+05  0.000E+00  0.000E+00  0.000E+00  4.22171E+01  1.602E-01  2.000E+01  2.000E+04 -1.365E-01
   1   13   15     1    15    1.1995E+05 -2.9901E+03   1.2294E+05  0.000E+00  0.000E+00  0.000E+00  4.17421E+01  1.625E-01  2.000E+01  2.000E+04 -1.495E-01
   1   12   16     1    16    1.2294E+05 -3.4671E+03   1.2641E+05  0.000E+00  0.000E+00  0.000E+00  4.12674E+01  1.651E-01  2.000E+01  2.000E+04 -1.734E-01
   1   12   17     1    17    1.2641E+05 -2.0706E+03   1.2848E+05  0.000E+00  0.000E+00  0.000E+00  4.07923E+01  1.673E-01  2.000E+01  2.000E+04 -1.035E-01
   1   12   18     1    18    1.2848E+05 -1.7707E+03   1.3025E+05  0.000E+00  0.000E+00  0.000E+00  4.03165E+01  1.688E-01  2.000E+01  2.000E+04 -8.853E-02
   1   12   19     1    19    1.3025E+05 -1.6711E+03   1.3192E+05  0.000E+00  0.000E+00  0.000E+00  3.98406E+01  1.702E-01  2.000E+01  2.000E+04 -8.356E-02
   1   13   20     1    20    1.3192E+05 -1.3762E+03   1.3330E+05  0.000E+00  0.000E+00  0.000E+00  3.93645E+01  1.713E-01  2.000E+01  2.000E+04 -6.881E-02
   1   14   21     1    21    1.3330E+05 -1.9071E+03   1.3521E+05  0.000E+00  0.000E+00  0.000E+00  3.88885E+01  1.726E-01  2.000E+01  2.000E+04 -9.535E-02
   1   14   22     1    22    1.3521E+05  5.0589E+03   1.3015E+05  0.000E+00  0.000E+00  0.000E+00  3.84100E+01  1.714E-01  2.000E+01  2.000E+04  2.529E-01
   1    9   30     2     1    5.0000E+04 -3.2345E+02   5.0323E+04  0.000E+00  0.000E+00  0.000E+00  4.02411E+01  1.161E-01  2.000E+01  2.000E+04 -1.617E-02
   1    9   29     2     2    5.0323E+04 -4.8046E+02   5.0804E+04  0.000E+00  0.000E+00  0.000E+00  3.99916E+01  1.166E-01  2.000E+01  2.000E+04 -2.402E-02
   1    9   28     2     3    5.0804E+04 -3.0486E+02   5.1109E+04  0.000E+00  0.000E+00  0.000E+00  3.97422E+01  1.172E-01  2.000E+01  2.000E+04 -1.524E-02
   1    9   27     2     4    5.1109E+04  9.0362E+02   5.0205E+04  0.000E+00  0.000E+00  0.000E+00  3.94918E+01  1.168E-01  2.000E+01  2.000E+04  4.518E-02
   1   10   26     2     5    5.0205E+04  8.2478E+02   4.9380E+04  0.000E+00  0.000E+00  0.000E+00  3.92406E+01  1.156E-01  2.000E+01  2.000E+04  4.124E-02
   1   11   25     2     6    4.9380E+04  7.2251E+02   4.8658E+04  0.000E+00  0.000E+00  0.000E+00  3.89895E+01  1.145E-01  2.000E+01  2.000E+04  3.613E-02
   1   12   24     2     7    4.8658E+04  1.3192E+03   4.7339E+04  0.000E+00  0.000E+00  0.000E+00  3.87381E+01  1.131E-01  2.000E+01  2.000E+04  6.596E-02
   1   13   23     2     8    4.7339E+04  1.5658E+02   4.7182E+04  0.000E+00  0.000E+00  0.000E+00  3.84870E+01  1.120E-01  2.000E+01  2.000E+04  7.829E-03
   1   14   22     2     9    4.7182E+04  1.5738E+03   4.5608E+04  0.000E+00  0.000E+00  0.000E+00  3.82358E+01  1.108E-01  2.000E+01  2.000E+04  7.869E-02
   1   14   22     3     1    1.7576E+05 -8.6142E+03   1.8437E+05  0.000E+00  0.000E+00  0.000E+00  3.77264E+01  1.708E-01  2.000E+01  2.000E+04 -4.307E-01
   1   15   23     3     2    1.8437E+05 -6.6761E+02   1.8504E+05  0.000E+00  0.000E+00  0.000E+00  3.68401E+01  1.735E-01  2.000E+01  2.000E+04 -3.338E-02
   1   15   24     3     3    1.8504E+05 -3.4388E+02   1.8538E+05  0.000E+00  0.000E+00  0.000E+00  3.59515E+01  1.737E-01  2.000E+01  2.000E+04 -1.719E-02
   1   15   25     3     4    1.8538E+05 -3.3260E+02   1.8571E+05  0.000E+00  0.000E+00  0.000E+00  3.50628E+01  1.739E-01  2.000E+01  2.000E+04 -1.663E-02
   1   15   26     3     5    1.8571E+05 -3.6803E+02   1.8608E+05  0.000E+00  0.000E+00  0.000E+00  3.41741E+01  1.741E-01  2.000E+01  2.000E+04 -1.840E-02
   1   16   27     3     6    1.8608E+05 -4.3369E+02   1.8652E+05  0.000E+00  0.000E+00  0.000E+00  3.32855E+01  1.744E-01  2.000E+01  2.000E+04 -2.168E-02
   1   17   28     3     7    1.8652E+05 -1.8472E+03   1.8836E+05  0.000E+00  0.000E+00  0.000E+00  3.23972E+01  1.750E-01  2.000E+01  2.000E+04 -9.236E-02
   1   18   29     3     8    1.8836E+05 -3.5527E+03   1.9192E+05  0.000E+00  0.000E+00  0.000E+00  3.15098E+01  1.765E-01  2.000E+01  2.000E+04 -1.776E-01
   1   18   30     3     9    1.9192E+05 -3.5550E+03   1.9547E+05  0.000E+00  0.000E+00  0.000E+00  3.06229E+01  1.785E-01  2.000E+01  2.000E+04 -1.778E-01



1
              HEAD IN LAYER   1 AT END OF TIME STEP   1 IN STRESS PERIOD    3
  ---------------------------------------------------------------------------

          1      2      3      4      5      6      7      8      9     10
         11     12     13     14     15     16     17     18     19     20
         21     22     23     24     25     26     27     28     29     30
 .........................................................................
   1  ****** ****** ****** ****** ****** ****** ****** ****** ****** ******
      ****** ****** ****** ****** ****** ****** ****** ****** ****** ******
      ****** ****** ****** ****** ****** ****** ****** ****** ****** ******
   2  ****** ****** ****** ****** ****** ****** ****** ****** ****** ******
      ****** ****** ****** ****** ****** ****** ****** ****** ****** ******
      ****** ****** ****** ****** ****** ****** ****** ****** ****** ******
   3  ****** ****** ****** ****** ****** ****** ****** ****** ****** ******
      ****** ****** ****** ****** ****** ****** ****** ****** ****** ******
      ****** ****** ****** ****** ****** ****** ****** ****** ****** ******
   4  ****** ****** ****** ****** ****** ****** ****** ****** ****** ******
      ****** ****** ****** ****** ****** ****** ****** ****** ****** ******
      ****** ****** ****** ****** ****** ****** ****** ****** ****** ******
   5  ****** ****** ****** ****** ****** ****** ****** ****** ****** ******
      ****** ****** ****** ****** ****** ****** ****** ****** ****** ******
      ****** ****** ****** ****** ****** ****** ****** ****** ****** ******
   6  ****** ****** ****** ****** ****** ****** ****** ****** ****** ******
      ****** ****** ****** ****** ****** ****** ****** ****** ****** ******
      ****** ****** ****** ****** ****** ****** ****** ****** ****** ******
   7  ****** ****** ****** ****** ****** ****** ****** ****** ****** ******
      ****** ****** ****** ****** ****** ****** ****** ****** ****** ******
      ****** ****** ****** ****** ****** ****** ****** ****** ****** ******
   8  ****** ****** ****** ****** ****** ****** ****** ****** ****** ******
      ****** ****** ****** ****** ****** ****** ****** ****** ****** ******
      ****** ****** ****** ****** ****** ****** ****** ****** ****** ******
   9  ****** ****** ****** ****** ****** ****** ****** ****** ****** ******
      ****** ****** ****** ****** ****** ****** ****** ****** ****** ******
      ****** ****** ****** ****** ****** ****** ****** ****** ****** ******
  10  ****** ****** ****** ****** ****** ****** ****** ****** ****** ******
      ****** ****** ****** ****** ****** ****** ****** ****** ****** ******
      ****** ****** ****** ****** ****** ****** ****** ****** ****** ******
  11  ****** ****** ****** ****** ****** ****** ****** ****** ****** ******
      ****** ****** ****** ****** ****** ****** ****** ****** ****** ******
      ****** ****** ****** ****** ****** ****** ****** ****** ****** ******
  12  ****** ****** ****** ****** ****** ****** ****** ****** ****** ******
      ****** ****** ****** ****** ****** ****** ****** ****** ****** ******
      ****** ****** ****** ****** ****** ****** ****** ****** ****** ******
  13  ****** ****** ****** ****** ****** ****** ****** ****** ****** ******
      ****** ****** ****** ****** ****** ****** ****** ****** ****** ******
      ****** ****** ****** ****** ****** ****** ****** ****** ****** ******
  14  ****** ****** ****** ****** ****** ****** ****** ****** ****** ******
      ****** ****** ****** ****** ****** ****** ****** ****** ****** ******
      ****** ****** ****** ****** ****** ****** ****** ****** ****** ******
  15  ****** ****** ****** ****** ****** ****** ****** ****** ****** ******
      ****** ****** ****** ****** ****** ****** ****** ****** ****** ******
      ****** ****** ****** ****** ****** ****** ****** ****** ****** ******
  16  ****** ****** ****** ****** ****** ****** ****** ****** ****** ******
      ****** ****** ****** ****** ****** ****** ****** ****** ****** ******
      ****** ****** ****** ****** ****** ****** ****** ****** ****** ******
  17  ****** ****** ****** ****** ****** ****** ****** ****** ****** ******
      ****** ****** ****** ****** ****** ****** ****** ****** ****** ******
      ****** ****** ****** ****** ****** ****** ****** ****** ****** ******
  18  ****** ****** ****** ****** ****** ****** ****** ****** ****** ******
      ****** ****** ****** ****** ****** ****** ****** ****** ****** ******
      ****** ****** ****** ****** ****** ****** ****** ****** ****** ******
  19  ****** ****** ****** ****** ****** ****** ****** ****** ****** ******
      ****** ****** ****** ****** ****** ****** ****** ****** ****** ******
      ****** ****** ****** ****** ****** ****** ****** ****** ****** ******
  20  ****** ****** ****** ****** ****** ****** ****** ****** ****** ******
      ****** ****** ****** ****** ****** ****** ****** ****** ****** ******
      ****** ****** ****** ****** ****** ****** ****** ****** ****** ******
  21  ****** ****** ****** ****** ****** ****** ****** ****** ****** ******
      ****** ****** ****** ****** ****** ****** ****** ****** ****** ******
      ****** ****** ****** ****** ****** ****** ****** ****** ****** ******
  22  ****** ****** ****** ****** ****** ****** ****** ****** ****** ******
      ****** ****** ****** ****** ****** ****** ****** ****** ****** ******
      ****** ****** ****** ****** ****** ****** ****** ****** ****** ******
  23  ****** ****** ****** ****** ****** ****** ****** ****** ****** ******
      ****** ****** ****** ****** ****** ****** ****** ****** ****** ******
      ****** ****** ****** ****** ****** ****** ****** ****** ****** ******
  24  ****** ****** ****** ****** ****** ****** ****** ****** ****** ******
      ****** ****** ****** ****** ****** ****** ****** ****** ****** ******
      ****** ****** ****** ****** ****** ****** ****** ****** ****** ******
  25  ****** ****** ****** ****** ****** ****** ****** ****** ****** ******
      ****** ****** ****** ****** ****** ****** ****** ****** ****** ******
      ****** ****** ****** ****** ****** ****** ****** ****** ****** ******

 HEAD WILL BE SAVED ON UNIT   51 AT END OF TIME STEP    1, STRESS PERIOD    3
1
  VOLUMETRIC BUDGET FOR ENTIRE MODEL AT END OF TIME STEP    1, STRESS PERIOD   3
  ------------------------------------------------------------------------------

     CUMULATIVE VOLUMES      L**3       RATES FOR THIS TIME STEP      L**3/T
     ------------------                 ------------------------

           IN:                                      IN:
           ---                                      ---
             STORAGE =    27743573.1968               STORAGE =       55071.6157
       CONSTANT HEAD =     5069841.1413         CONSTANT HEAD =       25791.4640
               WELLS =           0.0000                 WELLS =           0.0000
            RECHARGE =     6292800.0000              RECHARGE =           0.0000
      STREAM LEAKAGE =     1863251.1091        STREAM LEAKAGE =       10559.3895

            TOTAL IN =    40969465.4471              TOTAL IN =       91422.4693

          OUT:                                     OUT:
          ----                                     ----
             STORAGE =           0.0000               STORAGE =           0.0000
       CONSTANT HEAD =           0.0000         CONSTANT HEAD =           0.0000
               WELLS =     9697275.3580                 WELLS =       35391.5159
            RECHARGE =           0.0000              RECHARGE =           0.0000
      STREAM LEAKAGE =    31272192.1321        STREAM LEAKAGE =       56030.9615

           TOTAL OUT =    40969467.4901             TOTAL OUT =       91422.4774

            IN - OUT =          -2.0429              IN - OUT =      -8.1612E-03

 PERCENT DISCREPANCY =          -0.00     PERCENT DISCREPANCY =          -0.00






         TIME SUMMARY AT END OF TIME STEP    1 IN STRESS PERIOD    3
                    SECONDS     MINUTES      HOURS       DAYS        YEARS
                    -----------------------------------------------------------
   TIME STEP LENGTH 7.86240E+06 1.31040E+05  2184.0      91.000     0.24914    
 STRESS PERIOD TIME 7.86240E+06 1.31040E+05  2184.0      91.000     0.24914    
         TOTAL TIME 2.36736E+07 3.94560E+05  6576.0      274.00     0.75017    
1
1
                            STRESS PERIOD NO.    4, LENGTH =   91.00000    
                            -----------------------------------------------

                              NUMBER OF TIME STEPS =     1

                               MULTIPLIER FOR DELT =     1.500

                            INITIAL TIME STEP SIZE =   91.00000    

 WELL NO.  LAYER   ROW   COL   STRESS RATE         
 --------------------------------------------------
      1      1      8     26     -0.1072E+05
      2      1     11     23      -7775.    
      3      1      7     20      -8549.    
      4      1     17      2      -8344.    

      4 WELLS

                 RECHARGE =  1.000000E-03

 REUSING STREAM SEGMENT DATA FROM LAST STRESS PERIOD
 
 SOLVING FOR HEAD 


     6 CALLS TO PCG ROUTINE FOR TIME STEP   1 IN STRESS PERIOD    4
    23 TOTAL ITERATIONS

 OUTPUT CONTROL FOR STRESS PERIOD    4   TIME STEP    1
    SAVE BUDGET
    SAVE HEAD FOR ALL LAYERS
    PRINT HEAD FOR ALL LAYERS
 UBDSV2 SAVING "STREAMFLOW OUT  " ON UNIT  50 AT TIME STEP  1, STRESS PERIOD   4



 STREAM LISTING     PERIOD      4   STEP        1

 LAYER ROW COL. STREAM  RCH.  FLOW INTO     FLOW TO   FLOW OUT OF   OVRLND.     DIRECT     STREAM       STREAM     STREAM     STREAM   STREAMBED  STREAMBED
                SEG.NO.  NO.  STRM. RCH.    AQUIFER    STRM. RCH.    RUNOFF     PRECIP       ET          HEAD       DEPTH      WIDTH   CONDCTNC.   GRADIENT

   1   13    1     1     1    1.0000E+05 -1.4030E+03   1.0140E+05  0.000E+00  0.000E+00  0.000E+00  4.84066E+01  1.453E-01  2.000E+01  2.000E+04 -7.015E-02
   1   13    2     1     2    1.0140E+05 -2.5215E+03   1.0392E+05  0.000E+00  0.000E+00  0.000E+00  4.79310E+01  1.470E-01  2.000E+01  2.000E+04 -1.261E-01
   1   14    3     1     3    1.0392E+05 -2.6264E+02   1.0419E+05  0.000E+00  0.000E+00  0.000E+00  4.74550E+01  1.481E-01  2.000E+01  2.000E+04 -1.313E-02
   1   15    4     1     4    1.0419E+05 -1.5224E+02   1.0434E+05  0.000E+00  0.000E+00  0.000E+00  4.69779E+01  1.483E-01  2.000E+01  2.000E+04 -7.612E-03
   1   16    5     1     5    1.0434E+05  2.6070E+02   1.0408E+05  0.000E+00  0.000E+00  0.000E+00  4.65005E+01  1.483E-01  2.000E+01  2.000E+04  1.303E-02
   1   16    6     1     6    1.0408E+05 -7.4581E+02   1.0482E+05  0.000E+00  0.000E+00  0.000E+00  4.60235E+01  1.485E-01  2.000E+01  2.000E+04 -3.729E-02
   1   16    7     1     7    1.0482E+05 -9.6903E+02   1.0579E+05  0.000E+00  0.000E+00  0.000E+00  4.55469E+01  1.492E-01  2.000E+01  2.000E+04 -4.845E-02
   1   16    8     1     8    1.0579E+05 -1.0853E+03   1.0688E+05  0.000E+00  0.000E+00  0.000E+00  4.50705E+01  1.501E-01  2.000E+01  2.000E+04 -5.427E-02
   1   16    9     1     9    1.0688E+05 -1.1494E+03   1.0803E+05  0.000E+00  0.000E+00  0.000E+00  4.45942E+01  1.510E-01  2.000E+01  2.000E+04 -5.747E-02
   1   16   10     1    10    1.0803E+05 -1.1823E+03   1.0921E+05  0.000E+00  0.000E+00  0.000E+00  4.41179E+01  1.520E-01  2.000E+01  2.000E+04 -5.912E-02
   1   16   11     1    11    1.0921E+05 -1.2223E+03   1.1043E+05  0.000E+00  0.000E+00  0.000E+00  4.36417E+01  1.530E-01  2.000E+01  2.000E+04 -6.111E-02
   1   16   12     1    12    1.1043E+05 -2.2067E+03   1.1264E+05  0.000E+00  0.000E+00  0.000E+00  4.31658E+01  1.544E-01  2.000E+01  2.000E+04 -1.103E-01
   1   15   13     1    13    1.1264E+05 -2.1825E+03   1.1482E+05  0.000E+00  0.000E+00  0.000E+00  4.26904E+01  1.563E-01  2.000E+01  2.000E+04 -1.091E-01
   1   14   14     1    14    1.1482E+05 -2.4615E+03   1.1728E+05  0.000E+00  0.000E+00  0.000E+00  4.22150E+01  1.582E-01  2.000E+01  2.000E+04 -1.231E-01
   1   13   15     1    15    1.1728E+05 -2.6890E+03   1.1997E+05  0.000E+00  0.000E+00  0.000E+00  4.17398E+01  1.603E-01  2.000E+01  2.000E+04 -1.345E-01
   1   12   16     1    16    1.1997E+05 -3.0510E+03   1.2302E+05  0.000E+00  0.000E+00  0.000E+00  4.12649E+01  1.626E-01  2.000E+01  2.000E+04 -1.526E-01
   1   12   17     1    17    1.2302E+05 -1.8204E+03   1.2484E+05  0.000E+00  0.000E+00  0.000E+00  4.07895E+01  1.645E-01  2.000E+01  2.000E+04 -9.102E-02
   1   12   18     1    18    1.2484E+05 -1.5354E+03   1.2638E+05  0.000E+00  0.000E+00  0.000E+00  4.03136E+01  1.659E-01  2.000E+01  2.000E+04 -7.677E-02
   1   12   19     1    19    1.2638E+05 -1.3674E+03   1.2775E+05  0.000E+00  0.000E+00  0.000E+00  3.98375E+01  1.670E-01  2.000E+01  2.000E+04 -6.837E-02
   1   13   20     1    20    1.2775E+05 -1.1952E+03   1.2894E+05  0.000E+00  0.000E+00  0.000E+00  3.93612E+01  1.680E-01  2.000E+01  2.000E+04 -5.976E-02
   1   14   21     1    21    1.2894E+05 -1.6890E+03   1.3063E+05  0.000E+00  0.000E+00  0.000E+00  3.88851E+01  1.691E-01  2.000E+01  2.000E+04 -8.445E-02
   1   14   22     1    22    1.3063E+05  5.0948E+03   1.2554E+05  0.000E+00  0.000E+00  0.000E+00  3.84064E+01  1.678E-01  2.000E+01  2.000E+04  2.547E-01
   1    9   30     2     1    5.0000E+04 -2.0553E+02   5.0206E+04  0.000E+00  0.000E+00  0.000E+00  4.02410E+01  1.160E-01  2.000E+01  2.000E+04 -1.028E-02
   1    9   29     2     2    5.0206E+04 -3.5415E+02   5.0560E+04  0.000E+00  0.000E+00  0.000E+00  3.99914E+01  1.164E-01  2.000E+01  2.000E+04 -1.771E-02
   1    9   28     2     3    5.0560E+04 -1.5448E+02   5.0714E+04  0.000E+00  0.000E+00  0.000E+00  3.97417E+01  1.167E-01  2.000E+01  2.000E+04 -7.724E-03
   1    9   27     2     4    5.0714E+04  1.2340E+03   4.9480E+04  0.000E+00  0.000E+00  0.000E+00  3.94910E+01  1.160E-01  2.000E+01  2.000E+04  6.170E-02
   1   10   26     2     5    4.9480E+04  1.0262E+03   4.8454E+04  0.000E+00  0.000E+00  0.000E+00  3.92394E+01  1.144E-01  2.000E+01  2.000E+04  5.131E-02
   1   11   25     2     6    4.8454E+04  8.7618E+02   4.7578E+04  0.000E+00  0.000E+00  0.000E+00  3.89881E+01  1.131E-01  2.000E+01  2.000E+04  4.381E-02
   1   12   24     2     7    4.7578E+04  1.4520E+03   4.6126E+04  0.000E+00  0.000E+00  0.000E+00  3.87364E+01  1.114E-01  2.000E+01  2.000E+04  7.260E-02
   1   13   23     2     8    4.6126E+04  1.3603E+02   4.5990E+04  0.000E+00  0.000E+00  0.000E+00  3.84853E+01  1.103E-01  2.000E+01  2.000E+04  6.802E-03
   1   14   22     2     9    4.5990E+04  1.6461E+03   4.4344E+04  0.000E+00  0.000E+00  0.000E+00  3.82340E+01  1.090E-01  2.000E+01  2.000E+04  8.230E-02
   1   14   22     3     1    1.6988E+05 -8.5741E+03   1.7845E+05  0.000E+00  0.000E+00  0.000E+00  3.77230E+01  1.674E-01  2.000E+01  2.000E+04 -4.287E-01
   1   15   23     3     2    1.7845E+05 -6.4857E+02   1.7910E+05  0.000E+00  0.000E+00  0.000E+00  3.68368E+01  1.701E-01  2.000E+01  2.000E+04 -3.243E-02
   1   15   24     3     3    1.7910E+05 -3.4535E+02   1.7945E+05  0.000E+00  0.000E+00  0.000E+00  3.59482E+01  1.704E-01  2.000E+01  2.000E+04 -1.727E-02
   1   15   25     3     4    1.7945E+05 -3.3353E+02   1.7978E+05  0.000E+00  0.000E+00  0.000E+00  3.50595E+01  1.706E-01  2.000E+01  2.000E+04 -1.668E-02
   1   15   26     3     5    1.7978E+05 -3.7812E+02   1.8016E+05  0.000E+00  0.000E+00  0.000E+00  3.41708E+01  1.708E-01  2.000E+01  2.000E+04 -1.891E-02
   1   16   27     3     6    1.8016E+05 -4.3592E+02   1.8060E+05  0.000E+00  0.000E+00  0.000E+00  3.32821E+01  1.710E-01  2.000E+01  2.000E+04 -2.180E-02
   1   17   28     3     7    1.8060E+05 -1.7906E+03   1.8239E+05  0.000E+00  0.000E+00  0.000E+00  3.23939E+01  1.716E-01  2.000E+01  2.000E+04 -8.953E-02
   1   18   29     3     8    1.8239E+05 -3.3505E+03   1.8574E+05  0.000E+00  0.000E+00  0.000E+00  3.15064E+01  1.731E-01  2.000E+01  2.000E+04 -1.675E-01
   1   18   30     3     9    1.8574E+05 -3.4563E+03   1.8919E+05  0.000E+00  0.000E+00  0.000E+00  3.06195E+01  1.750E-01  2.000E+01  2.000E+04 -1.728E-01



1
              HEAD IN LAYER   1 AT END OF TIME STEP   1 IN STRESS PERIOD    4
  ---------------------------------------------------------------------------

          1      2      3      4      5      6      7      8      9     10
         11     12     13     14     15     16     17     18     19     20
         21     22     23     24     25     26     27     28     29     30
 .........................................................................
   1  ****** ****** ****** ****** ****** ****** ****** ****** ****** ******
      ****** ****** ****** ****** ****** ****** ****** ****** ****** ******
      ****** ****** ****** ****** ****** ****** ****** ****** ****** ******
   2  ****** ****** ****** ****** ****** ****** ****** ****** ****** ******
      ****** ****** ****** ****** ****** ****** ****** ****** ****** ******
      ****** ****** ****** ****** ****** ****** ****** ****** ****** ******
   3  ****** ****** ****** ****** ****** ****** ****** ****** ****** ******
      ****** ****** ****** ****** ****** ****** ****** ****** ****** ******
      ****** ****** ****** ****** ****** ****** ****** ****** ****** ******
   4  ****** ****** ****** ****** ****** ****** ****** ****** ****** ******
      ****** ****** ****** ****** ****** ****** ****** ****** ****** ******
      ****** ****** ****** ****** ****** ****** ****** ****** ****** ******
   5  ****** ****** ****** ****** ****** ****** ****** ****** ****** ******
      ****** ****** ****** ****** ****** ****** ****** ****** ****** ******
      ****** ****** ****** ****** ****** ****** ****** ****** ****** ******
   6  ****** ****** ****** ****** ****** ****** ****** ****** ****** ******
      ****** ****** ****** ****** ****** ****** ****** ****** ****** ******
      ****** ****** ****** ****** ****** ****** ****** ****** ****** ******
   7  ****** ****** ****** ****** ****** ****** ****** ****** ****** ******
      ****** ****** ****** ****** ****** ****** ****** ****** ****** ******
      ****** ****** ****** ****** ****** ****** ****** ****** ****** ******
   8  ****** ****** ****** ****** ****** ****** ****** ****** ****** ******
      ****** ****** ****** ****** ****** ****** ****** ****** ****** ******
      ****** ****** ****** ****** ****** ****** ****** ****** ****** ******
   9  ****** ****** ****** ****** ****** ****** ****** ****** ****** ******
      ****** ****** ****** ****** ****** ****** ****** ****** ****** ******
      ****** ****** ****** ****** ****** ****** ****** ****** ****** ******
  10  ****** ****** ****** ****** ****** ****** ****** ****** ****** ******
      ****** ****** ****** ****** ****** ****** ****** ****** ****** ******
      ****** ****** ****** ****** ****** ****** ****** ****** ****** ******
  11  ****** ****** ****** ****** ****** ****** ****** ****** ****** ******
      ****** ****** ****** ****** ****** ****** ****** ****** ****** ******
      ****** ****** ****** ****** ****** ****** ****** ****** ****** ******
  12  ****** ****** ****** ****** ****** ****** ****** ****** ****** ******
      ****** ****** ****** ****** ****** ****** ****** ****** ****** ******
      ****** ****** ****** ****** ****** ****** ****** ****** ****** ******
  13  ****** ****** ****** ****** ****** ****** ****** ****** ****** ******
      ****** ****** ****** ****** ****** ****** ****** ****** ****** ******
      ****** ****** ****** ****** ****** ****** ****** ****** ****** ******
  14  ****** ****** ****** ****** ****** ****** ****** ****** ****** ******
      ****** ****** ****** ****** ****** ****** ****** ****** ****** ******
      ****** ****** ****** ****** ****** ****** ****** ****** ****** ******
  15  ****** ****** ****** ****** ****** ****** ****** ****** ****** ******
      ****** ****** ****** ****** ****** ****** ****** ****** ****** ******
      ****** ****** ****** ****** ****** ****** ****** ****** ****** ******
  16  ****** ****** ****** ****** ****** ****** ****** ****** ****** ******
      ****** ****** ****** ****** ****** ****** ****** ****** ****** ******
      ****** ****** ****** ****** ****** ****** ****** ****** ****** ******
  17  ****** ****** ****** ****** ****** ****** ****** ****** ****** ******
      ****** ****** ****** ****** ****** ****** ****** ****** ****** ******
      ****** ****** ****** ****** ****** ****** ****** ****** ****** ******
  18  ****** ****** ****** ****** ****** ****** ****** ****** ****** ******
      ****** ****** ****** ****** ****** ****** ****** ****** ****** ******
      ****** ****** ****** ****** ****** ****** ****** ****** ****** ******
  19  ****** ****** ****** ****** ****** ****** ****** ****** ****** ******
      ****** ****** ****** ****** ****** ****** ****** ****** ****** ******
      ****** ****** ****** ****** ****** ****** ****** ****** ****** ******
  20  ****** ****** ****** ****** ****** ****** ****** ****** ****** ******
      ****** ****** ****** ****** ****** ****** ****** ****** ****** ******
      ****** ****** ****** ****** ****** ****** ****** ****** ****** ******
  21  ****** ****** ****** ****** ****** ****** ****** ****** ****** ******
      ****** ****** ****** ****** ****** ****** ****** ****** ****** ******
      ****** ****** ****** ****** ****** ****** ****** ****** ****** ******
  22  ****** ****** ****** ****** ****** ****** ****** ****** ****** ******
      ****** ****** ****** ****** ****** ****** ****** ****** ****** ******
      ****** ****** ****** ****** ****** ****** ****** ****** ****** ******
  23  ****** ****** ****** ****** ****** ****** ****** ****** ****** ******
      ****** ****** ****** ****** ****** ****** ****** ****** ****** ******
      ****** ****** ****** ****** ****** ****** ****** ****** ****** ******
  24  ****** ****** ****** ****** ****** ****** ****** ****** ****** ******
      ****** ****** ****** ****** ****** ****** ****** ****** ****** ******
      ****** ****** ****** ****** ****** ****** ****** ****** ****** ******
  25  ****** ****** ****** ****** ****** ****** ****** ****** ****** ******
      ****** ****** ****** ****** ****** ****** ****** ****** ****** ******
      ****** ****** ****** ****** ****** ****** ****** ****** ****** ******

 HEAD WILL BE SAVED ON UNIT   51 AT END OF TIME STEP    1, STRESS PERIOD    4
1
  VOLUMETRIC BUDGET FOR ENTIRE MODEL AT END OF TIME STEP    1, STRESS PERIOD   4
  ------------------------------------------------------------------------------

     CUMULATIVE VOLUMES      L**3       RATES FOR THIS TIME STEP      L**3/T
     ------------------                 ------------------------

           IN:                                      IN:
           ---                                      ---
             STORAGE =    29433433.9839               STORAGE =       18569.8988
       CONSTANT HEAD =     7656711.2683         CONSTANT HEAD =       28427.1443
               WELLS =           0.0000                 WELLS =           0.0000
            RECHARGE =     8804400.0000              RECHARGE =       27600.0000
      STREAM LEAKAGE =     2930304.7644        STREAM LEAKAGE =       11725.8643

            TOTAL IN =    48824850.0165              TOTAL IN =       86322.9074

          OUT:                                     OUT:
          ----                                     ----
             STORAGE =        1140.2749               STORAGE =          12.5305
       CONSTANT HEAD =           0.0000         CONSTANT HEAD =           0.0000
               WELLS =    12917903.3053                 WELLS =       35391.5159
            RECHARGE =           0.0000              RECHARGE =           0.0000
      STREAM LEAKAGE =    35905808.5610        STREAM LEAKAGE =       50918.8619

           TOTAL OUT =    48824852.1413             TOTAL OUT =       86322.9083

            IN - OUT =          -2.1247              IN - OUT =      -8.9868E-04

 PERCENT DISCREPANCY =          -0.00     PERCENT DISCREPANCY =          -0.00






         TIME SUMMARY AT END OF TIME STEP    1 IN STRESS PERIOD    4
                    SECONDS     MINUTES      HOURS       DAYS        YEARS
                    -----------------------------------------------------------
   TIME STEP LENGTH 7.86240E+06 1.31040E+05  2184.0      91.000     0.24914    
 STRESS PERIOD TIME 7.86240E+06 1.31040E+05  2184.0      91.000     0.24914    
         TOTAL TIME 3.15360E+07 5.25600E+05  8760.0      365.00     0.99932    
1
1
                            STRESS PERIOD NO.    5, LENGTH =   92.00000    
                            -----------------------------------------------

                              NUMBER OF TIME STEPS =     1

                               MULTIPLIER FOR DELT =     1.500

                            INITIAL TIME STEP SIZE =   92.00000    

 WELL NO.  LAYER   ROW   COL   STRESS RATE         
 --------------------------------------------------
      1      1      8     26     -0.1072E+05
      2      1     11     23      -7775.    
      3      1      7     20      -8549.    
      4      1     17      2      -8344.    

      4 WELLS

                 RECHARGE =  5.000000E-04

 REUSING STREAM SEGMENT DATA FROM LAST STRESS PERIOD
 
 SOLVING FOR HEAD 


     7 CALLS TO PCG ROUTINE FOR TIME STEP   1 IN STRESS PERIOD    5
    26 TOTAL ITERATIONS

 OUTPUT CONTROL FOR STRESS PERIOD    5   TIME STEP    1
    SAVE BUDGET
    SAVE HEAD FOR ALL LAYERS
    PRINT HEAD FOR ALL LAYERS
 UBDSV2 SAVING "STREAMFLOW OUT  " ON UNIT  50 AT TIME STEP  1, STRESS PERIOD   5



 STREAM LISTING     PERIOD      5   STEP        1

 LAYER ROW COL. STREAM  RCH.  FLOW INTO     FLOW TO   FLOW OUT OF   OVRLND.     DIRECT     STREAM       STREAM     STREAM     STREAM   STREAMBED  STREAMBED
                SEG.NO.  NO.  STRM. RCH.    AQUIFER    STRM. RCH.    RUNOFF     PRECIP       ET          HEAD       DEPTH      WIDTH   CONDCTNC.   GRADIENT

   1   13    1     1     1    1.0000E+05 -9.7832E+02   1.0098E+05  0.000E+00  0.000E+00  0.000E+00  4.84064E+01  1.451E-01  2.000E+01  2.000E+04 -4.892E-02
   1   13    2     1     2    1.0098E+05 -2.0433E+03   1.0302E+05  0.000E+00  0.000E+00  0.000E+00  4.79305E+01  1.464E-01  2.000E+01  2.000E+04 -1.022E-01
   1   14    3     1     3    1.0302E+05 -1.3738E+02   1.0316E+05  0.000E+00  0.000E+00  0.000E+00  4.74541E+01  1.473E-01  2.000E+01  2.000E+04 -6.869E-03
   1   15    4     1     4    1.0316E+05 -1.9279E+01   1.0318E+05  0.000E+00  0.000E+00  0.000E+00  4.69769E+01  1.474E-01  2.000E+01  2.000E+04 -9.640E-04
   1   16    5     1     5    1.0318E+05  7.1994E+02   1.0246E+05  0.000E+00  0.000E+00  0.000E+00  4.64994E+01  1.471E-01  2.000E+01  2.000E+04  3.600E-02
   1   16    6     1     6    1.0246E+05 -4.8245E+02   1.0294E+05  0.000E+00  0.000E+00  0.000E+00  4.60220E+01  1.470E-01  2.000E+01  2.000E+04 -2.412E-02
   1   16    7     1     7    1.0294E+05 -7.1900E+02   1.0366E+05  0.000E+00  0.000E+00  0.000E+00  4.55452E+01  1.475E-01  2.000E+01  2.000E+04 -3.595E-02
   1   16    8     1     8    1.0366E+05 -8.4100E+02   1.0450E+05  0.000E+00  0.000E+00  0.000E+00  4.50686E+01  1.482E-01  2.000E+01  2.000E+04 -4.205E-02
   1   16    9     1     9    1.0450E+05 -9.0986E+02   1.0541E+05  0.000E+00  0.000E+00  0.000E+00  4.45921E+01  1.489E-01  2.000E+01  2.000E+04 -4.549E-02
   1   16   10     1    10    1.0541E+05 -9.4795E+02   1.0636E+05  0.000E+00  0.000E+00  0.000E+00  4.41156E+01  1.497E-01  2.000E+01  2.000E+04 -4.740E-02
   1   16   11     1    11    1.0636E+05 -9.8923E+02   1.0735E+05  0.000E+00  0.000E+00  0.000E+00  4.36392E+01  1.505E-01  2.000E+01  2.000E+04 -4.946E-02
   1   16   12     1    12    1.0735E+05 -1.7936E+03   1.0914E+05  0.000E+00  0.000E+00  0.000E+00  4.31631E+01  1.517E-01  2.000E+01  2.000E+04 -8.968E-02
   1   15   13     1    13    1.0914E+05 -1.7472E+03   1.1089E+05  0.000E+00  0.000E+00  0.000E+00  4.26873E+01  1.532E-01  2.000E+01  2.000E+04 -8.736E-02
   1   14   14     1    14    1.1089E+05 -1.9964E+03   1.1289E+05  0.000E+00  0.000E+00  0.000E+00  4.22116E+01  1.547E-01  2.000E+01  2.000E+04 -9.982E-02
   1   13   15     1    15    1.1289E+05 -2.2028E+03   1.1509E+05  0.000E+00  0.000E+00  0.000E+00  4.17360E+01  1.565E-01  2.000E+01  2.000E+04 -1.101E-01
   1   12   16     1    16    1.1509E+05 -2.5094E+03   1.1760E+05  0.000E+00  0.000E+00  0.000E+00  4.12607E+01  1.584E-01  2.000E+01  2.000E+04 -1.255E-01
   1   12   17     1    17    1.1760E+05 -1.4579E+03   1.1906E+05  0.000E+00  0.000E+00  0.000E+00  4.07850E+01  1.600E-01  2.000E+01  2.000E+04 -7.289E-02
   1   12   18     1    18    1.1906E+05 -1.1897E+03   1.2024E+05  0.000E+00  0.000E+00  0.000E+00  4.03088E+01  1.611E-01  2.000E+01  2.000E+04 -5.949E-02
   1   12   19     1    19    1.2024E+05 -9.4352E+02   1.2119E+05  0.000E+00  0.000E+00  0.000E+00  3.98324E+01  1.620E-01  2.000E+01  2.000E+04 -4.718E-02
   1   13   20     1    20    1.2119E+05 -8.3656E+02   1.2202E+05  0.000E+00  0.000E+00  0.000E+00  3.93558E+01  1.627E-01  2.000E+01  2.000E+04 -4.183E-02
   1   14   21     1    21    1.2202E+05 -1.3175E+03   1.2334E+05  0.000E+00  0.000E+00  0.000E+00  3.88794E+01  1.635E-01  2.000E+01  2.000E+04 -6.588E-02
   1   14   22     1    22    1.2334E+05  5.1758E+03   1.1817E+05  0.000E+00  0.000E+00  0.000E+00  3.84006E+01  1.620E-01  2.000E+01  2.000E+04  2.588E-01
[...]
  19  ****** ****** ****** ****** ****** ****** ****** ****** ****** ******
      ****** ****** ****** ****** ****** ****** ****** ****** ****** ******
      ****** ****** ****** ****** ****** ****** ****** ****** ****** ******
  20  ****** ****** ****** ****** ****** ****** ****** ****** ****** ******
      ****** ****** ****** ****** ****** ****** ****** ****** ****** ******
      ****** ****** ****** ****** ****** ****** ****** ****** ****** ******
  21  ****** ****** ****** ****** ****** ****** ****** ****** ****** ******
      ****** ****** ****** ****** ****** ****** ****** ****** ****** ******
      ****** ****** ****** ****** ****** ****** ****** ****** ****** ******
  22  ****** ****** ****** ****** ****** ****** ****** ****** ****** ******
      ****** ****** ****** ****** ****** ****** ****** ****** ****** ******
      ****** ****** ****** ****** ****** ****** ****** ****** ****** ******
  23  ****** ****** ****** ****** ****** ****** ****** ****** ****** ******
      ****** ****** ****** ****** ****** ****** ****** ****** ****** ******
      ****** ****** ****** ****** ****** ****** ****** ****** ****** ******
  24  ****** ****** ****** ****** ****** ****** ****** ****** ****** ******
      ****** ****** ****** ****** ****** ****** ****** ****** ****** ******
      ****** ****** ****** ****** ****** ****** ****** ****** ****** ******
  25  ****** ****** ****** ****** ****** ****** ****** ****** ****** ******
      ****** ****** ****** ****** ****** ****** ****** ****** ****** ******
      ****** ****** ****** ****** ****** ****** ****** ****** ****** ******

 HEAD WILL BE SAVED ON UNIT   51 AT END OF TIME STEP    1, STRESS PERIOD   11
1
  VOLUMETRIC BUDGET FOR ENTIRE MODEL AT END OF TIME STEP    1, STRESS PERIOD  11
  ------------------------------------------------------------------------------

     CUMULATIVE VOLUMES      L**3       RATES FOR THIS TIME STEP      L**3/T
     ------------------                 ------------------------

           IN:                                      IN:
           ---                                      ---
             STORAGE =    35583699.4636               STORAGE =       17932.1887
       CONSTANT HEAD =    28425671.9924         CONSTANT HEAD =       34597.6161
               WELLS =           0.0000                 WELLS =           0.0000
            RECHARGE =    23901600.0000              RECHARGE =           0.0000
      STREAM LEAKAGE =    12032528.2030        STREAM LEAKAGE =       16513.1210

            TOTAL IN =    99943499.6591              TOTAL IN =       69042.9259

          OUT:                                     OUT:
          ----                                     ----
             STORAGE =     2372722.6994               STORAGE =           0.0000
       CONSTANT HEAD =           0.0000         CONSTANT HEAD =           0.0000
               WELLS =    35533081.9687                 WELLS =       35391.5159
            RECHARGE =           0.0000              RECHARGE =           0.0000
      STREAM LEAKAGE =    62037697.0860        STREAM LEAKAGE =       33651.4150

           TOTAL OUT =    99943501.7541             TOTAL OUT =       69042.9309

            IN - OUT =          -2.0950              IN - OUT =      -5.0488E-03

 PERCENT DISCREPANCY =          -0.00     PERCENT DISCREPANCY =          -0.00






         TIME SUMMARY AT END OF TIME STEP    1 IN STRESS PERIOD   11
                    SECONDS     MINUTES      HOURS       DAYS        YEARS
                    -----------------------------------------------------------
   TIME STEP LENGTH 7.86240E+06 1.31040E+05  2184.0      91.000     0.24914    
 STRESS PERIOD TIME 7.86240E+06 1.31040E+05  2184.0      91.000     0.24914    
         TOTAL TIME 8.67456E+07 1.44576E+06  24096.      1004.0      2.7488    
1
1
                            STRESS PERIOD NO.   12, LENGTH =   91.00000    
                            -----------------------------------------------

                              NUMBER OF TIME STEPS =     1

                               MULTIPLIER FOR DELT =     1.500

                            INITIAL TIME STEP SIZE =   91.00000    

 WELL NO.  LAYER   ROW   COL   STRESS RATE         
 --------------------------------------------------
      1      1      8     26     -0.1072E+05
      2      1     11     23      -7775.    
      3      1      7     20      -8549.    
      4      1     17      2      -8344.    

      4 WELLS

                 RECHARGE =  1.000000E-03

 REUSING STREAM SEGMENT DATA FROM LAST STRESS PERIOD
 
 SOLVING FOR HEAD 


     6 CALLS TO PCG ROUTINE FOR TIME STEP   1 IN STRESS PERIOD   12
    23 TOTAL ITERATIONS

 OUTPUT CONTROL FOR STRESS PERIOD   12   TIME STEP    1
    SAVE BUDGET
    SAVE HEAD FOR ALL LAYERS
    PRINT HEAD FOR ALL LAYERS
 UBDSV2 SAVING "STREAMFLOW OUT  " ON UNIT  50 AT TIME STEP  1, STRESS PERIOD  12



 STREAM LISTING     PERIOD     12   STEP        1

 LAYER ROW COL. STREAM  RCH.  FLOW INTO     FLOW TO   FLOW OUT OF   OVRLND.     DIRECT     STREAM       STREAM     STREAM     STREAM   STREAMBED  STREAMBED
                SEG.NO.  NO.  STRM. RCH.    AQUIFER    STRM. RCH.    RUNOFF     PRECIP       ET          HEAD       DEPTH      WIDTH   CONDCTNC.   GRADIENT

   1   13    1     1     1    1.0000E+05 -5.0783E+02   1.0051E+05  0.000E+00  0.000E+00  0.000E+00  4.84062E+01  1.449E-01  2.000E+01  2.000E+04 -2.539E-02
   1   13    2     1     2    1.0051E+05 -1.4907E+03   1.0200E+05  0.000E+00  0.000E+00  0.000E+00  4.79298E+01  1.457E-01  2.000E+01  2.000E+04 -7.453E-02
   1   14    3     1     3    1.0200E+05 -6.5749E+01   1.0206E+05  0.000E+00  0.000E+00  0.000E+00  4.74532E+01  1.464E-01  2.000E+01  2.000E+04 -3.287E-03
   1   15    4     1     4    1.0206E+05  4.3179E+01   1.0202E+05  0.000E+00  0.000E+00  0.000E+00  4.69760E+01  1.464E-01  2.000E+01  2.000E+04  2.159E-03
   1   16    5     1     5    1.0202E+05  8.7469E+02   1.0115E+05  0.000E+00  0.000E+00  0.000E+00  4.64983E+01  1.460E-01  2.000E+01  2.000E+04  4.373E-02
   1   16    6     1     6    1.0115E+05 -3.7679E+02   1.0152E+05  0.000E+00  0.000E+00  0.000E+00  4.60208E+01  1.458E-01  2.000E+01  2.000E+04 -1.884E-02
   1   16    7     1     7    1.0152E+05 -6.1211E+02   1.0214E+05  0.000E+00  0.000E+00  0.000E+00  4.55440E+01  1.462E-01  2.000E+01  2.000E+04 -3.061E-02
   1   16    8     1     8    1.0214E+05 -7.3682E+02   1.0287E+05  0.000E+00  0.000E+00  0.000E+00  4.50673E+01  1.468E-01  2.000E+01  2.000E+04 -3.684E-02
   1   16    9     1     9    1.0287E+05 -8.1374E+02   1.0369E+05  0.000E+00  0.000E+00  0.000E+00  4.45907E+01  1.475E-01  2.000E+01  2.000E+04 -4.069E-02
   1   16   10     1    10    1.0369E+05 -8.6452E+02   1.0455E+05  0.000E+00  0.000E+00  0.000E+00  4.41141E+01  1.482E-01  2.000E+01  2.000E+04 -4.323E-02
   1   16   11     1    11    1.0455E+05 -9.1757E+02   1.0547E+05  0.000E+00  0.000E+00  0.000E+00  4.36376E+01  1.490E-01  2.000E+01  2.000E+04 -4.588E-02
   1   16   12     1    12    1.0547E+05 -1.6269E+03   1.0709E+05  0.000E+00  0.000E+00  0.000E+00  4.31614E+01  1.500E-01  2.000E+01  2.000E+04 -8.134E-02
   1   15   13     1    13    1.0709E+05 -1.5116E+03   1.0861E+05  0.000E+00  0.000E+00  0.000E+00  4.26855E+01  1.514E-01  2.000E+01  2.000E+04 -7.558E-02
   1   14   14     1    14    1.0861E+05 -1.6950E+03   1.1030E+05  0.000E+00  0.000E+00  0.000E+00  4.22095E+01  1.527E-01  2.000E+01  2.000E+04 -8.475E-02
   1   13   15     1    15    1.1030E+05 -1.8452E+03   1.1215E+05  0.000E+00  0.000E+00  0.000E+00  4.17337E+01  1.542E-01  2.000E+01  2.000E+04 -9.226E-02
   1   12   16     1    16    1.1215E+05 -2.0316E+03   1.1418E+05  0.000E+00  0.000E+00  0.000E+00  4.12581E+01  1.558E-01  2.000E+01  2.000E+04 -1.016E-01
   1   12   17     1    17    1.1418E+05 -1.2098E+03   1.1539E+05  0.000E+00  0.000E+00  0.000E+00  4.07821E+01  1.571E-01  2.000E+01  2.000E+04 -6.049E-02
   1   12   18     1    18    1.1539E+05 -9.7947E+02   1.1637E+05  0.000E+00  0.000E+00  0.000E+00  4.03058E+01  1.580E-01  2.000E+01  2.000E+04 -4.897E-02
   1   12   19     1    19    1.1637E+05 -6.9971E+02   1.1707E+05  0.000E+00  0.000E+00  0.000E+00  3.98292E+01  1.587E-01  2.000E+01  2.000E+04 -3.499E-02
   1   13   20     1    20    1.1707E+05 -7.1380E+02   1.1778E+05  0.000E+00  0.000E+00  0.000E+00  3.93525E+01  1.593E-01  2.000E+01  2.000E+04 -3.569E-02
   1   14   21     1    21    1.1778E+05 -1.1902E+03   1.1897E+05  0.000E+00  0.000E+00  0.000E+00  3.88760E+01  1.601E-01  2.000E+01  2.000E+04 -5.951E-02
   1   14   22     1    22    1.1897E+05  5.1823E+03   1.1379E+05  0.000E+00  0.000E+00  0.000E+00  3.83971E+01  1.584E-01  2.000E+01  2.000E+04  2.591E-01
   1    9   30     2     1    5.0000E+04  5.6300E+01   4.9944E+04  0.000E+00  0.000E+00  0.000E+00  4.02408E+01  1.158E-01  2.000E+01  2.000E+04  2.815E-03
   1    9   29     2     2    4.9944E+04 -8.0950E+01   5.0025E+04  0.000E+00  0.000E+00  0.000E+00  3.99908E+01  1.158E-01  2.000E+01  2.000E+04 -4.047E-03
   1    9   28     2     3    5.0025E+04  1.5098E+02   4.9874E+04  0.000E+00  0.000E+00  0.000E+00  3.97408E+01  1.158E-01  2.000E+01  2.000E+04  7.549E-03
   1    9   27     2     4    4.9874E+04  1.7988E+03   4.8075E+04  0.000E+00  0.000E+00  0.000E+00  3.94894E+01  1.144E-01  2.000E+01  2.000E+04  8.994E-02
   1   10   26     2     5    4.8075E+04  1.4688E+03   4.6606E+04  0.000E+00  0.000E+00  0.000E+00  3.92371E+01  1.121E-01  2.000E+01  2.000E+04  7.344E-02
   1   11   25     2     6    4.6606E+04  1.2696E+03   4.5336E+04  0.000E+00  0.000E+00  0.000E+00  3.89852E+01  1.102E-01  2.000E+01  2.000E+04  6.348E-02
   1   12   24     2     7    4.5336E+04  1.8195E+03   4.3517E+04  0.000E+00  0.000E+00  0.000E+00  3.87329E+01  1.079E-01  2.000E+01  2.000E+04  9.097E-02
   1   13   23     2     8    4.3517E+04  1.9444E+02   4.3323E+04  0.000E+00  0.000E+00  0.000E+00  3.84815E+01  1.065E-01  2.000E+01  2.000E+04  9.722E-03
   1   14   22     2     9    4.3323E+04  1.8400E+03   4.1483E+04  0.000E+00  0.000E+00  0.000E+00  3.82300E+01  1.050E-01  2.000E+01  2.000E+04  9.200E-02
   1   14   22     3     1    1.5527E+05 -8.4711E+03   1.6374E+05  0.000E+00  0.000E+00  0.000E+00  3.77144E+01  1.588E-01  2.000E+01  2.000E+04 -4.236E-01
   1   15   23     3     2    1.6374E+05 -5.4153E+02   1.6428E+05  0.000E+00  0.000E+00  0.000E+00  3.68282E+01  1.615E-01  2.000E+01  2.000E+04 -2.708E-02
   1   15   24     3     3    1.6428E+05 -2.7985E+02   1.6456E+05  0.000E+00  0.000E+00  0.000E+00  3.59395E+01  1.618E-01  2.000E+01  2.000E+04 -1.399E-02
   1   15   25     3     4    1.6456E+05 -2.7194E+02   1.6484E+05  0.000E+00  0.000E+00  0.000E+00  3.50508E+01  1.619E-01  2.000E+01  2.000E+04 -1.360E-02
   1   15   26     3     5    1.6484E+05 -3.2927E+02   1.6517E+05  0.000E+00  0.000E+00  0.000E+00  3.41621E+01  1.621E-01  2.000E+01  2.000E+04 -1.646E-02
   1   16   27     3     6    1.6517E+05 -3.6089E+02   1.6553E+05  0.000E+00  0.000E+00  0.000E+00  3.32734E+01  1.623E-01  2.000E+01  2.000E+04 -1.804E-02
   1   17   28     3     7    1.6553E+05 -1.5387E+03   1.6706E+05  0.000E+00  0.000E+00  0.000E+00  3.23851E+01  1.629E-01  2.000E+01  2.000E+04 -7.694E-02
   1   18   29     3     8    1.6706E+05 -2.8773E+03   1.6994E+05  0.000E+00  0.000E+00  0.000E+00  3.14975E+01  1.642E-01  2.000E+01  2.000E+04 -1.439E-01
   1   18   30     3     9    1.6994E+05 -3.1621E+03   1.7310E+05  0.000E+00  0.000E+00  0.000E+00  3.06104E+01  1.659E-01  2.000E+01  2.000E+04 -1.581E-01



1
              HEAD IN LAYER   1 AT END OF TIME STEP   1 IN STRESS PERIOD   12
  ---------------------------------------------------------------------------

          1      2      3      4      5      6      7      8      9     10
         11     12     13     14     15     16     17     18     19     20
         21     22     23     24     25     26     27     28     29     30
 .........................................................................
   1  ****** ****** ****** ****** ****** ****** ****** ****** ****** ******
      ****** ****** ****** ****** ****** ****** ****** ****** ****** ******
      ****** ****** ****** ****** ****** ****** ****** ****** ****** ******
   2  ****** ****** ****** ****** ****** ****** ****** ****** ****** ******
      ****** ****** ****** ****** ****** ****** ****** ****** ****** ******
      ****** ****** ****** ****** ****** ****** ****** ****** ****** ******
   3  ****** ****** ****** ****** ****** ****** ****** ****** ****** ******
      ****** ****** ****** ****** ****** ****** ****** ****** ****** ******
      ****** ****** ****** ****** ****** ****** ****** ****** ****** ******
   4  ****** ****** ****** ****** ****** ****** ****** ****** ****** ******
      ****** ****** ****** ****** ****** ****** ****** ****** ****** ******
      ****** ****** ****** ****** ****** ****** ****** ****** ****** ******
   5  ****** ****** ****** ****** ****** ****** ****** ****** ****** ******
      ****** ****** ****** ****** ****** ****** ****** ****** ****** ******
      ****** ****** ****** ****** ****** ****** ****** ****** ****** ******
   6  ****** ****** ****** ****** ****** ****** ****** ****** ****** ******
      ****** ****** ****** ****** ****** ****** ****** ****** ****** ******
      ****** ****** ****** ****** ****** ****** ****** ****** ****** ******
   7  ****** ****** ****** ****** ****** ****** ****** ****** ****** ******
      ****** ****** ****** ****** ****** ****** ****** ****** ****** ******
      ****** ****** ****** ****** ****** ****** ****** ****** ****** ******
   8  ****** ****** ****** ****** ****** ****** ****** ****** ****** ******
      ****** ****** ****** ****** ****** ****** ****** ****** ****** ******
      ****** ****** ****** ****** ****** ****** ****** ****** ****** ******
   9  ****** ****** ****** ****** ****** ****** ****** ****** ****** ******
      ****** ****** ****** ****** ****** ****** ****** ****** ****** ******
      ****** ****** ****** ****** ****** ****** ****** ****** ****** ******
  10  ****** ****** ****** ****** ****** ****** ****** ****** ****** ******
      ****** ****** ****** ****** ****** ****** ****** ****** ****** ******
      ****** ****** ****** ****** ****** ****** ****** ****** ****** ******
  11  ****** ****** ****** ****** ****** ****** ****** ****** ****** ******
      ****** ****** ****** ****** ****** ****** ****** ****** ****** ******
      ****** ****** ****** ****** ****** ****** ****** ****** ****** ******
  12  ****** ****** ****** ****** ****** ****** ****** ****** ****** ******
      ****** ****** ****** ****** ****** ****** ****** ****** ****** ******
      ****** ****** ****** ****** ****** ****** ****** ****** ****** ******
  13  ****** ****** ****** ****** ****** ****** ****** ****** ****** ******
      ****** ****** ****** ****** ****** ****** ****** ****** ****** ******
      ****** ****** ****** ****** ****** ****** ****** ****** ****** ******
  14  ****** ****** ****** ****** ****** ****** ****** ****** ****** ******
      ****** ****** ****** ****** ****** ****** ****** ****** ****** ******
      ****** ****** ****** ****** ****** ****** ****** ****** ****** ******
  15  ****** ****** ****** ****** ****** ****** ****** ****** ****** ******
      ****** ****** ****** ****** ****** ****** ****** ****** ****** ******
      ****** ****** ****** ****** ****** ****** ****** ****** ****** ******
  16  ****** ****** ****** ****** ****** ****** ****** ****** ****** ******
      ****** ****** ****** ****** ****** ****** ****** ****** ****** ******
      ****** ****** ****** ****** ****** ****** ****** ****** ****** ******
  17  ****** ****** ****** ****** ****** ****** ****** ****** ****** ******
      ****** ****** ****** ****** ****** ****** ****** ****** ****** ******
      ****** ****** ****** ****** ****** ****** ****** ****** ****** ******
  18  ****** ****** ****** ****** ****** ****** ****** ****** ****** ******
      ****** ****** ****** ****** ****** ****** ****** ****** ****** ******
      ****** ****** ****** ****** ****** ****** ****** ****** ****** ******
  19  ****** ****** ****** ****** ****** ****** ****** ****** ****** ******
      ****** ****** ****** ****** ****** ****** ****** ****** ****** ******
      ****** ****** ****** ****** ****** ****** ****** ****** ****** ******
  20  ****** ****** ****** ****** ****** ****** ****** ****** ****** ******
      ****** ****** ****** ****** ****** ****** ****** ****** ****** ******
      ****** ****** ****** ****** ****** ****** ****** ****** ****** ******
  21  ****** ****** ****** ****** ****** ****** ****** ****** ****** ******
      ****** ****** ****** ****** ****** ****** ****** ****** ****** ******
      ****** ****** ****** ****** ****** ****** ****** ****** ****** ******
  22  ****** ****** ****** ****** ****** ****** ****** ****** ****** ******
      ****** ****** ****** ****** ****** ****** ****** ****** ****** ******
      ****** ****** ****** ****** ****** ****** ****** ****** ****** ******
  23  ****** ****** ****** ****** ****** ****** ****** ****** ****** ******
      ****** ****** ****** ****** ****** ****** ****** ****** ****** ******
      ****** ****** ****** ****** ****** ****** ****** ****** ****** ******
  24  ****** ****** ****** ****** ****** ****** ****** ****** ****** ******
      ****** ****** ****** ****** ****** ****** ****** ****** ****** ******
      ****** ****** ****** ****** ****** ****** ****** ****** ****** ******
  25  ****** ****** ****** ****** ****** ****** ****** ****** ****** ******
      ****** ****** ****** ****** ****** ****** ****** ****** ****** ******
      ****** ****** ****** ****** ****** ****** ****** ****** ****** ******

 HEAD WILL BE SAVED ON UNIT   51 AT END OF TIME STEP    1, STRESS PERIOD   12
1
  VOLUMETRIC BUDGET FOR ENTIRE MODEL AT END OF TIME STEP    1, STRESS PERIOD  12
  ------------------------------------------------------------------------------

     CUMULATIVE VOLUMES      L**3       RATES FOR THIS TIME STEP      L**3/T
     ------------------                 ------------------------

           IN:                                      IN:
           ---                                      ---
             STORAGE =    35584666.5742               STORAGE =          10.6276
       CONSTANT HEAD =    31510647.2707         CONSTANT HEAD =       33900.8272
               WELLS =           0.0000                 WELLS =           0.0000
            RECHARGE =    26413200.0000              RECHARGE =       27600.0000
      STREAM LEAKAGE =    13370102.4562        STREAM LEAKAGE =       14698.6182

            TOTAL IN =   106878616.3010              TOTAL IN =       76210.0730

          OUT:                                     OUT:
          ----                                     ----
             STORAGE =     2647159.3763               STORAGE =        3015.7877
       CONSTANT HEAD =           0.0000         CONSTANT HEAD =           0.0000
               WELLS =    38753709.9160                 WELLS =       35391.5159
            RECHARGE =           0.0000              RECHARGE =           0.0000
      STREAM LEAKAGE =    65477749.0433        STREAM LEAKAGE =       37802.7688

           TOTAL OUT =   106878618.3356             TOTAL OUT =       76210.0723

            IN - OUT =          -2.0346              IN - OUT =       6.6460E-04

 PERCENT DISCREPANCY =          -0.00     PERCENT DISCREPANCY =           0.00






         TIME SUMMARY AT END OF TIME STEP    1 IN STRESS PERIOD   12
                    SECONDS     MINUTES      HOURS       DAYS        YEARS
                    -----------------------------------------------------------
   TIME STEP LENGTH 7.86240E+06 1.31040E+05  2184.0      91.000     0.24914    
 STRESS PERIOD TIME 7.86240E+06 1.31040E+05  2184.0      91.000     0.24914    
         TOTAL TIME 9.46080E+07 1.57680E+06  26280.      1095.0      2.9979    
1

 Run end date and time (yyyy/mm/dd hh:mm:ss): 2019/03/03 17:20:21
 Elapsed run time:  0.089 Seconds

