                                  MODFLOW-2005     
      U.S. GEOLOGICAL SURVEY MODULAR FINITE-DIFFERENCE GROUND-WATER FLOW MODEL
                            VERSION 1.11.00 8/8/2013

 LIST FILE: supply2.lst
                         UNIT   10

 OPENING ..\data\supply.dis
 FILE TYPE:DIS   UNIT   11   STATUS:OLD    
 FORMAT:FORMATTED              ACCESS:SEQUENTIAL          

 OPENING ..\data\supply.ba6
 FILE TYPE:BAS6   UNIT   12   STATUS:OLD    
 FORMAT:FORMATTED              ACCESS:SEQUENTIAL          

 OPENING ..\data\supply_het.bc6
 FILE TYPE:BCF6   UNIT   13   STATUS:OLD    
 FORMAT:FORMATTED              ACCESS:SEQUENTIAL          

 OPENING ..\data\supply.rch
 FILE TYPE:RCH   UNIT   15   STATUS:OLD    
 FORMAT:FORMATTED              ACCESS:SEQUENTIAL          

 OPENING ..\data\supply2.sfr
 FILE TYPE:SFR   UNIT   16   STATUS:OLD    
 FORMAT:FORMATTED              ACCESS:SEQUENTIAL          

 OPENING ..\data\supply.oc
 FILE TYPE:OC   UNIT   17   STATUS:OLD    
 FORMAT:FORMATTED              ACCESS:SEQUENTIAL          

 OPENING ..\data\supply.pcg
 FILE TYPE:PCG   UNIT   18   STATUS:OLD    
 FORMAT:FORMATTED              ACCESS:SEQUENTIAL          

 OPENING supply2.wel
 FILE TYPE:WEL   UNIT   19   STATUS:OLD    
 FORMAT:FORMATTED              ACCESS:SEQUENTIAL          

 OPENING supply2sf.cbc
 FILE TYPE:DATA(BINARY)   UNIT   50   STATUS:UNKNOWN
 FORMAT:BINARY                 ACCESS:SEQUENTIAL          

 OPENING supply2hd.bhd
 FILE TYPE:DATA(BINARY)   UNIT   51   STATUS:UNKNOWN
 FORMAT:BINARY                 ACCESS:SEQUENTIAL          

 BAS -- BASIC PACKAGE, VERSION 7, 5/2/2005 INPUT READ FROM UNIT   12
 
 MODFLOW was compiled using uniform precision
 Precision of REAL and DOUBLE PRECISION variables:          15

 DISCRETIZATION INPUT DATA READ FROM UNIT   11
    1 LAYERS        25 ROWS        30 COLUMNS
   12 STRESS PERIOD(S) IN SIMULATION
 MODEL TIME UNIT IS DAYS
 MODEL LENGTH UNIT IS UNDEFINED
  Confining bed flag for each layer:
   0

                     DELR =   200.000    

                     DELC =   200.000    

 TOP ELEVATION OF LAYER 1 =  100.0000    

   MODEL LAYER BOTTOM EL. =   0.00000     FOR LAYER   1


 STRESS PERIOD     LENGTH       TIME STEPS     MULTIPLIER FOR DELT    SS FLAG
 ----------------------------------------------------------------------------
        1         92.00000          1                    1.500         TR
        2         91.00000          1                    1.500         TR
        3         91.00000          1                    1.500         TR
        4         91.00000          1                    1.500         TR
        5         92.00000          1                    1.500         TR
        6         91.00000          1                    1.500         TR
        7         91.00000          1                    1.500         TR
        8         91.00000          1                    1.500         TR
        9         92.00000          1                    1.500         TR
       10         91.00000          1                    1.500         TR
       11         91.00000          1                    1.500         TR
       12         91.00000          1                    1.500         TR

 TRANSIENT SIMULATION



 
 #MODOFC transient water supply sample problem                                   
 #                                                                               
 THE FREE FORMAT OPTION HAS BEEN SELECTED



                     BOUNDARY ARRAY FOR LAYER   1
 READING ON UNIT   12 WITH FORMAT: (20I4)              

 AQUIFER HEAD WILL BE SET TO   0.0000     AT ALL NO-FLOW NODES (IBOUND=0).



                       INITIAL HEAD FOR LAYER   1
 READING ON UNIT   12 WITH FORMAT: (10F13.0)           

 OUTPUT CONTROL IS SPECIFIED ONLY AT TIME STEPS FOR WHICH OUTPUT IS DESIRED
 COMPACT CELL-BY-CELL BUDGET FILES WILL BE WRITTEN
 HEAD PRINT FORMAT CODE IS  18    DRAWDOWN PRINT FORMAT CODE IS   0
 HEADS WILL BE SAVED ON UNIT   51    DRAWDOWNS WILL BE SAVED ON UNIT    0

 BCF -- BLOCK-CENTERED FLOW PACKAGE, VERSION 7, 5/2/2005
         INPUT READ FROM UNIT 13
 TRANSIENT SIMULATION
 HEAD AT CELLS THAT CONVERT TO DRY=   0.0000    
 WETTING CAPABILITY IS NOT ACTIVE
      LAYER  LAYER-TYPE CODE     INTERBLOCK T
      --------------------------------------------
         1            0          0 -- HARMONIC    

 COLUMN TO ROW ANISOTROPY =  1.000000    

     PRIMARY STORAGE COEF =  5.000000E-02 FOR LAYER   1



               TRANSMIS. ALONG ROWS FOR LAYER   1
 READING ON UNIT   13 WITH FORMAT: (FREE)              

 WEL -- WELL PACKAGE, VERSION 7, 5/2/2005 INPUT READ FROM UNIT   19
 # Well package input file written by MMProc
 No named parameters
 MAXIMUM OF      4 ACTIVE WELLS AT ONE TIME


     0 Well parameters

 RCH -- RECHARGE PACKAGE, VERSION 7, 5/2/2005 INPUT READ FROM UNIT   15
 No named parameters
 OPTION 1 -- RECHARGE TO TOP LAYER


     0 Recharge parameters

 SFR7 -- STREAMFLOW ROUTING PACKAGE, VERSION 1.0.7, 2013-01-15
         INPUT READ FROM UNIT  16
 #  Supply2 test problem for GWM-VI
 #  The eighth entry in the first data line is ISTCB2 -
 #    Setting this to a negative number indicates that
 #    streamflows out of the reach will be saved to a
 #    binary file.  The absolute value of ISTCB2 is the
 #    unit to which unformatted flows will be written.
 #
 No named parameters
 Segment information will not be 
 read by reach
 No named parameters
 No specifed inflow files


 NUMBER OF STREAM REACHES IS   40

 NUMBER OF STREAM SEGMENTS IS    3

 NUMBER OF STREAM PARAMETERS IS    0

 NUMBER OF STREAM SEGMENTS DEFINED USING PARAMETERS IS              0

 MAXIMUM ERROR FOR STREAM LEAKAGE RATES IS  1.00E-04

 CONSTANT FOR MANNINGS EQUATION IS  1.2839E+05





   STREAM NETWORK DESCRIPTION: 

   LAYER    ROW    COL   SEGMENT   REACH     LENGTH
                          NUMBER   NUMBER    IN CELL        
   --------------------------------------------------
      1     13      1       1        1    2.0000E+02
      1     13      2       1        2    2.0000E+02
      1     14      3       1        3    2.0000E+02
      1     15      4       1        4    2.0000E+02
      1     16      5       1        5    2.0000E+02
      1     16      6       1        6    2.0000E+02
      1     16      7       1        7    2.0000E+02
      1     16      8       1        8    2.0000E+02
      1     16      9       1        9    2.0000E+02
      1     16     10       1       10    2.0000E+02
      1     16     11       1       11    2.0000E+02
      1     16     12       1       12    2.0000E+02
      1     15     13       1       13    2.0000E+02
      1     14     14       1       14    2.0000E+02
      1     13     15       1       15    2.0000E+02
      1     12     16       1       16    2.0000E+02
      1     12     17       1       17    2.0000E+02
      1     12     18       1       18    2.0000E+02
      1     12     19       1       19    2.0000E+02
      1     13     20       1       20    2.0000E+02
      1     14     21       1       21    2.0000E+02
      1     14     22       1       22    2.0000E+02
      1      9     30       2        1    2.0000E+02
      1      9     29       2        2    2.0000E+02
      1      9     28       2        3    2.0000E+02
      1      9     27       2        4    2.0000E+02
      1     10     26       2        5    2.0000E+02
      1     11     25       2        6    2.0000E+02
      1     12     24       2        7    2.0000E+02
      1     13     23       2        8    2.0000E+02
      1     14     22       2        9    2.0000E+02
      1     14     22       3        1    2.0000E+02
      1     15     23       3        2    2.0000E+02
      1     15     24       3        3    2.0000E+02
      1     15     25       3        4    2.0000E+02
      1     15     26       3        5    2.0000E+02
      1     16     27       3        6    2.0000E+02
      1     17     28       3        7    2.0000E+02
      1     18     29       3        8    2.0000E+02
      1     18     30       3        9    2.0000E+02




 PCG -- CONJUGATE-GRADIENT SOLUTION PACKAGE, VERSION 7, 5/2/2005
 MAXIMUM OF    500 CALLS OF SOLUTION ROUTINE
 MAXIMUM OF      5 INTERNAL ITERATIONS PER CALL TO SOLUTION ROUTINE
 MATRIX PRECONDITIONING TYPE :    1



                                    SOLUTION BY THE CONJUGATE-GRADIENT METHOD
                                   -------------------------------------------
                    MAXIMUM NUMBER OF CALLS TO PCG ROUTINE =      500
                        MAXIMUM ITERATIONS PER CALL TO PCG =        5
                               MATRIX PRECONDITIONING TYPE =        1
        RELAXATION FACTOR (ONLY USED WITH PRECOND. TYPE 1) =    0.10000E+01
 PARAMETER OF POLYNOMIAL PRECOND. = 2 (2) OR IS CALCULATED :        0
                         HEAD CHANGE CRITERION FOR CLOSURE =    0.10000E-05
                     RESIDUAL CHANGE CRITERION FOR CLOSURE =    0.10000E+01
            PCG HEAD AND RESIDUAL CHANGE PRINTOUT INTERVAL =        1
     PRINTING FROM SOLVER IS LIMITED(1) OR SUPPRESSED (>1) =        1
                            STEADY-STATE DAMPING PARAMETER =    0.10000E+01
                               TRANSIENT DAMPING PARAMETER =    0.10000E+01
1
                            STRESS PERIOD NO.    1, LENGTH =   92.00000    
                            -----------------------------------------------

                              NUMBER OF TIME STEPS =     1

                               MULTIPLIER FOR DELT =     1.500

                            INITIAL TIME STEP SIZE =   92.00000    

 WELL NO.  LAYER   ROW   COL   STRESS RATE         
 --------------------------------------------------
      1      1      9     21     -0.1443E+05
      2      1      5     25      -7885.    
      3      1     22     18      -7019.    
      4      1     19      6      -9882.    

      4 WELLS

                 RECHARGE =  5.000000E-04



 CLASSIFICATION & COUNT OF STREAM SEGMENTS BASED ON SOURCE OF INFLOW:

                HEADWATER     DIVERSION     RECEIVES TRIBUTARY FLOW
                ---------     ---------     -----------------------
                     2              0               1



                    INPUT DATA FOR EACH STREAM SEGMENT
 ---------------------------------------------------------------------------------------------

 SEGMENT    SEG.     INFLOW   OVERLAND   STREAM    STREAM   ICALC  OUTFLOW  DIVERSION PRIORITY
    NO.    LENGTH     RATE     RUNOFF      ET       PPT.    METH.  TO SEG.  FROM SEG.    NO.

      1  4.400E+03 1.000E+05 0.000E+00 0.000E+00 0.000E+00    1        3        0        0
      2  1.800E+03 5.000E+04 0.000E+00 0.000E+00 0.000E+00    1        3        0        0
      3  1.800E+03 0.000E+00 0.000E+00 0.000E+00 0.000E+00    1        0        0        0


         STREAMBED PROPERTIES AND STREAM DIMENSIONS

 SEGMENT     BED HYD. COND.      BED THICKNESS     ELEV.-TOP OF BED     WIDTH OF STREAM     DEPTH OF STREAM    STREAM ROUGHNESS
    No.     UPPER     LOWER     UPPER     LOWER     UPPER     LOWER     UPPER     LOWER     UPPER     LOWER   CHANNEL      BANK

     1  5.000E+00 5.000E+00 1.000E+00 1.000E+00 4.850E+01 3.800E+01 2.000E+01 2.000E+01                     5.000E-02
     2  5.000E+00 5.000E+00 1.000E+00 1.000E+00 4.025E+01 3.800E+01 2.000E+01 2.000E+01                     5.000E-02
     3  5.000E+00 5.000E+00 1.000E+00 1.000E+00 3.800E+01 3.000E+01 2.000E+01 2.000E+01                     5.000E-02



 
 SOLVING FOR HEAD 


     9 CALLS TO PCG ROUTINE FOR TIME STEP   1 IN STRESS PERIOD    1
    36 TOTAL ITERATIONS

 OUTPUT CONTROL FOR STRESS PERIOD    1   TIME STEP    1
    SAVE BUDGET
    SAVE HEAD FOR ALL LAYERS
    PRINT HEAD FOR ALL LAYERS
 UBDSV2 SAVING "STREAMFLOW OUT  " ON UNIT  50 AT TIME STEP  1, STRESS PERIOD   1



 STREAM LISTING     PERIOD      1   STEP        1

 LAYER ROW COL. STREAM  RCH.  FLOW INTO     FLOW TO   FLOW OUT OF   OVRLND.     DIRECT     STREAM       STREAM     STREAM     STREAM   STREAMBED  STREAMBED
                SEG.NO.  NO.  STRM. RCH.    AQUIFER    STRM. RCH.    RUNOFF     PRECIP       ET          HEAD       DEPTH      WIDTH   CONDCTNC.   GRADIENT

   1   13    1     1     1    1.0000E+05 -5.9738E+03   1.0597E+05  0.000E+00  0.000E+00  0.000E+00  4.84086E+01  1.472E-01  2.000E+01  2.000E+04 -2.987E-01
   1   13    2     1     2    1.0597E+05 -7.4493E+03   1.1342E+05  0.000E+00  0.000E+00  0.000E+00  4.79370E+01  1.529E-01  2.000E+01  2.000E+04 -3.725E-01
   1   14    3     1     3    1.1342E+05 -2.1465E+03   1.1557E+05  0.000E+00  0.000E+00  0.000E+00  4.74637E+01  1.569E-01  2.000E+01  2.000E+04 -1.073E-01
   1   15    4     1     4    1.1557E+05 -2.1620E+03   1.1773E+05  0.000E+00  0.000E+00  0.000E+00  4.69882E+01  1.587E-01  2.000E+01  2.000E+04 -1.081E-01
   1   16    5     1     5    1.1773E+05 -5.8964E+03   1.2363E+05  0.000E+00  0.000E+00  0.000E+00  4.65142E+01  1.619E-01  2.000E+01  2.000E+04 -2.948E-01
   1   16    6     1     6    1.2363E+05 -3.3109E+03   1.2694E+05  0.000E+00  0.000E+00  0.000E+00  4.60406E+01  1.656E-01  2.000E+01  2.000E+04 -1.655E-01
   1   16    7     1     7    1.2694E+05 -3.3365E+03   1.3028E+05  0.000E+00  0.000E+00  0.000E+00  4.55659E+01  1.682E-01  2.000E+01  2.000E+04 -1.668E-01
   1   16    8     1     8    1.3028E+05 -3.5166E+03   1.3379E+05  0.000E+00  0.000E+00  0.000E+00  4.50914E+01  1.709E-01  2.000E+01  2.000E+04 -1.758E-01
   1   16    9     1     9    1.3379E+05 -3.6744E+03   1.3747E+05  0.000E+00  0.000E+00  0.000E+00  4.46169E+01  1.737E-01  2.000E+01  2.000E+04 -1.837E-01
   1   16   10     1    10    1.3747E+05 -3.7790E+03   1.4125E+05  0.000E+00  0.000E+00  0.000E+00  4.41424E+01  1.765E-01  2.000E+01  2.000E+04 -1.889E-01
   1   16   11     1    11    1.4125E+05 -3.8681E+03   1.4511E+05  0.000E+00  0.000E+00  0.000E+00  4.36680E+01  1.794E-01  2.000E+01  2.000E+04 -1.934E-01
   1   16   12     1    12    1.4511E+05 -6.6497E+03   1.5176E+05  0.000E+00  0.000E+00  0.000E+00  4.31947E+01  1.833E-01  2.000E+01  2.000E+04 -3.325E-01
   1   15   13     1    13    1.5176E+05 -7.0958E+03   1.5886E+05  0.000E+00  0.000E+00  0.000E+00  4.27225E+01  1.884E-01  2.000E+01  2.000E+04 -3.548E-01
   1   14   14     1    14    1.5886E+05 -7.6295E+03   1.6649E+05  0.000E+00  0.000E+00  0.000E+00  4.22505E+01  1.937E-01  2.000E+01  2.000E+04 -3.815E-01
   1   13   15     1    15    1.6649E+05 -7.9718E+03   1.7446E+05  0.000E+00  0.000E+00  0.000E+00  4.17788E+01  1.992E-01  2.000E+01  2.000E+04 -3.986E-01
   1   12   16     1    16    1.7446E+05 -8.4795E+03   1.8294E+05  0.000E+00  0.000E+00  0.000E+00  4.13072E+01  2.049E-01  2.000E+01  2.000E+04 -4.240E-01
   1   12   17     1    17    1.8294E+05 -5.8564E+03   1.8880E+05  0.000E+00  0.000E+00  0.000E+00  4.08348E+01  2.098E-01  2.000E+01  2.000E+04 -2.928E-01
   1   12   18     1    18    1.8880E+05 -5.4850E+03   1.9428E+05  0.000E+00  0.000E+00  0.000E+00  4.03614E+01  2.136E-01  2.000E+01  2.000E+04 -2.743E-01
   1   12   19     1    19    1.9428E+05 -6.2374E+03   2.0052E+05  0.000E+00  0.000E+00  0.000E+00  3.98880E+01  2.175E-01  2.000E+01  2.000E+04 -3.119E-01
   1   13   20     1    20    2.0052E+05 -5.8450E+03   2.0636E+05  0.000E+00  0.000E+00  0.000E+00  3.94147E+01  2.215E-01  2.000E+01  2.000E+04 -2.923E-01
   1   14   21     1    21    2.0636E+05 -5.8943E+03   2.1226E+05  0.000E+00  0.000E+00  0.000E+00  3.89412E+01  2.253E-01  2.000E+01  2.000E+04 -2.947E-01
   1   14   22     1    22    2.1226E+05  3.8181E+03   2.0844E+05  0.000E+00  0.000E+00  0.000E+00  3.84646E+01  2.260E-01  2.000E+01  2.000E+04  1.909E-01
   1    9   30     2     1    5.0000E+04 -4.5152E+03   5.4515E+04  0.000E+00  0.000E+00  0.000E+00  4.02440E+01  1.190E-01  2.000E+01  2.000E+04 -2.258E-01
   1    9   29     2     2    5.4515E+04 -4.7592E+03   5.9274E+04  0.000E+00  0.000E+00  0.000E+00  4.00002E+01  1.252E-01  2.000E+01  2.000E+04 -2.380E-01
   1    9   28     2     3    5.9274E+04 -4.9185E+03   6.4193E+04  0.000E+00  0.000E+00  0.000E+00  3.97565E+01  1.315E-01  2.000E+01  2.000E+04 -2.459E-01
   1    9   27     2     4    6.4193E+04 -7.0858E+03   7.1279E+04  0.000E+00  0.000E+00  0.000E+00  3.95140E+01  1.390E-01  2.000E+01  2.000E+04 -3.543E-01
   1   10   26     2     5    7.1279E+04 -6.2622E+03   7.7541E+04  0.000E+00  0.000E+00  0.000E+00  3.92721E+01  1.471E-01  2.000E+01  2.000E+04 -3.131E-01
   1   11   25     2     6    7.7541E+04 -5.6899E+03   8.3231E+04  0.000E+00  0.000E+00  0.000E+00  3.90291E+01  1.541E-01  2.000E+01  2.000E+04 -2.845E-01
   1   12   24     2     7    8.3231E+04 -5.1250E+03   8.8356E+04  0.000E+00  0.000E+00  0.000E+00  3.87852E+01  1.602E-01  2.000E+01  2.000E+04 -2.563E-01
   1   13   23     2     8    8.8356E+04 -1.4667E+03   8.9822E+04  0.000E+00  0.000E+00  0.000E+00  3.85389E+01  1.639E-01  2.000E+01  2.000E+04 -7.333E-02
   1   14   22     2     9    8.9822E+04  3.1547E+02   8.9507E+04  0.000E+00  0.000E+00  0.000E+00  3.82895E+01  1.645E-01  2.000E+01  2.000E+04  1.577E-02
   1   14   22     3     1    2.9795E+05 -9.6965E+03   3.0764E+05  0.000E+00  0.000E+00  0.000E+00  3.77889E+01  2.333E-01  2.000E+01  2.000E+04 -4.848E-01
   1   15   23     3     2    3.0764E+05 -1.9459E+03   3.0959E+05  0.000E+00  0.000E+00  0.000E+00  3.69027E+01  2.360E-01  2.000E+01  2.000E+04 -9.730E-02
   1   15   24     3     3    3.0959E+05 -1.5212E+03   3.1111E+05  0.000E+00  0.000E+00  0.000E+00  3.60146E+01  2.368E-01  2.000E+01  2.000E+04 -7.606E-02
   1   15   25     3     4    3.1111E+05 -1.5747E+03   3.1268E+05  0.000E+00  0.000E+00  0.000E+00  3.51264E+01  2.375E-01  2.000E+01  2.000E+04 -7.874E-02
   1   15   26     3     5    3.1268E+05 -1.8803E+03   3.1457E+05  0.000E+00  0.000E+00  0.000E+00  3.42383E+01  2.383E-01  2.000E+01  2.000E+04 -9.401E-02
   1   16   27     3     6    3.1457E+05 -2.1601E+03   3.1673E+05  0.000E+00  0.000E+00  0.000E+00  3.33503E+01  2.392E-01  2.000E+01  2.000E+04 -1.080E-01
   1   17   28     3     7    3.1673E+05 -6.5530E+03   3.2328E+05  0.000E+00  0.000E+00  0.000E+00  3.24634E+01  2.412E-01  2.000E+01  2.000E+04 -3.276E-01
   1   18   29     3     8    3.2328E+05 -7.9312E+03   3.3121E+05  0.000E+00  0.000E+00  0.000E+00  3.15778E+01  2.445E-01  2.000E+01  2.000E+04 -3.966E-01
   1   18   30     3     9    3.3121E+05 -7.1380E+03   3.3835E+05  0.000E+00  0.000E+00  0.000E+00  3.06923E+01  2.478E-01  2.000E+01  2.000E+04 -3.569E-01



1
              HEAD IN LAYER   1 AT END OF TIME STEP   1 IN STRESS PERIOD    1
  ---------------------------------------------------------------------------

          1      2      3      4      5      6      7      8      9     10
         11     12     13     14     15     16     17     18     19     20
         21     22     23     24     25     26     27     28     29     30
 .........................................................................
   1  ****** ****** ****** ****** ****** ****** ****** ****** ****** ******
      ****** ****** ****** ****** ****** ****** ****** ****** ****** ******
      ****** ****** ****** ****** ****** ****** ****** ****** ****** ******
   2  ****** ****** ****** ****** ****** ****** ****** ****** ****** ******
      ****** ****** ****** ****** ****** ****** ****** ****** ****** ******
      ****** ****** ****** ****** ****** ****** ****** ****** ****** ******
   3  ****** ****** ****** ****** ****** ****** ****** ****** ****** ******
      ****** ****** ****** ****** ****** ****** ****** ****** ****** ******
      ****** ****** ****** ****** ****** ****** ****** ****** ****** ******
   4  ****** ****** ****** ****** ****** ****** ****** ****** ****** ******
      ****** ****** ****** ****** ****** ****** ****** ****** ****** ******
      ****** ****** ****** ****** ****** ****** ****** ****** ****** ******
   5  ****** ****** ****** ****** ****** ****** ****** ****** ****** ******
      ****** ****** ****** ****** ****** ****** ****** ****** ****** ******
      ****** ****** ****** ****** ****** ****** ****** ****** ****** ******
   6  ****** ****** ****** ****** ****** ****** ****** ****** ****** ******
      ****** ****** ****** ****** ****** ****** ****** ****** ****** ******
      ****** ****** ****** ****** ****** ****** ****** ****** ****** ******
   7  ****** ****** ****** ****** ****** ****** ****** ****** ****** ******
      ****** ****** ****** ****** ****** ****** ****** ****** ****** ******
      ****** ****** ****** ****** ****** ****** ****** ****** ****** ******
   8  ****** ****** ****** ****** ****** ****** ****** ****** ****** ******
      ****** ****** ****** ****** ****** ****** ****** ****** ****** ******
      ****** ****** ****** ****** ****** ****** ****** ****** ****** ******
   9  ****** ****** ****** ****** ****** ****** ****** ****** ****** ******
      ****** ****** ****** ****** ****** ****** ****** ****** ****** ******
      ****** ****** ****** ****** ****** ****** ****** ****** ****** ******
  10  ****** ****** ****** ****** ****** ****** ****** ****** ****** ******
      ****** ****** ****** ****** ****** ****** ****** ****** ****** ******
      ****** ****** ****** ****** ****** ****** ****** ****** ****** ******
  11  ****** ****** ****** ****** ****** ****** ****** ****** ****** ******
      ****** ****** ****** ****** ****** ****** ****** ****** ****** ******
      ****** ****** ****** ****** ****** ****** ****** ****** ****** ******
  12  ****** ****** ****** ****** ****** ****** ****** ****** ****** ******
      ****** ****** ****** ****** ****** ****** ****** ****** ****** ******
      ****** ****** ****** ****** ****** ****** ****** ****** ****** ******
  13  ****** ****** ****** ****** ****** ****** ****** ****** ****** ******
      ****** ****** ****** ****** ****** ****** ****** ****** ****** ******
      ****** ****** ****** ****** ****** ****** ****** ****** ****** ******
  14  ****** ****** ****** ****** ****** ****** ****** ****** ****** ******
      ****** ****** ****** ****** ****** ****** ****** ****** ****** ******
      ****** ****** ****** ****** ****** ****** ****** ****** ****** ******
  15  ****** ****** ****** ****** ****** ****** ****** ****** ****** ******
      ****** ****** ****** ****** ****** ****** ****** ****** ****** ******
      ****** ****** ****** ****** ****** ****** ****** ****** ****** ******
  16  ****** ****** ****** ****** ****** ****** ****** ****** ****** ******
      ****** ****** ****** ****** ****** ****** ****** ****** ****** ******
      ****** ****** ****** ****** ****** ****** ****** ****** ****** ******
  17  ****** ****** ****** ****** ****** ****** ****** ****** ****** ******
      ****** ****** ****** ****** ****** ****** ****** ****** ****** ******
      ****** ****** ****** ****** ****** ****** ****** ****** ****** ******
  18  ****** ****** ****** ****** ****** ****** ****** ****** ****** ******
      ****** ****** ****** ****** ****** ****** ****** ****** ****** ******
      ****** ****** ****** ****** ****** ****** ****** ****** ****** ******
  19  ****** ****** ****** ****** ****** ****** ****** ****** ****** ******
      ****** ****** ****** ****** ****** ****** ****** ****** ****** ******
      ****** ****** ****** ****** ****** ****** ****** ****** ****** ******
  20  ****** ****** ****** ****** ****** ****** ****** ****** ****** ******
      ****** ****** ****** ****** ****** ****** ****** ****** ****** ******
      ****** ****** ****** ****** ****** ****** ****** ****** ****** ******
  21  ****** ****** ****** ****** ****** ****** ****** ****** ****** ******
      ****** ****** ****** ****** ****** ****** ****** ****** ****** ******
      ****** ****** ****** ****** ****** ****** ****** ****** ****** ******
  22  ****** ****** ****** ****** ****** ****** ****** ****** ****** ******
      ****** ****** ****** ****** ****** ****** ****** ****** ****** ******
      ****** ****** ****** ****** ****** ****** ****** ****** ****** ******
  23  ****** ****** ****** ****** ****** ****** ****** ****** ****** ******
      ****** ****** ****** ****** ****** ****** ****** ****** ****** ******
      ****** ****** ****** ****** ****** ****** ****** ****** ****** ******
  24  ****** ****** ****** ****** ****** ****** ****** ****** ****** ******
      ****** ****** ****** ****** ****** ****** ****** ****** ****** ******
      ****** ****** ****** ****** ****** ****** ****** ****** ****** ******
  25  ****** ****** ****** ****** ****** ****** ****** ****** ****** ******
      ****** ****** ****** ****** ****** ****** ****** ****** ****** ******
      ****** ****** ****** ****** ****** ****** ****** ****** ****** ******

 HEAD WILL BE SAVED ON UNIT   51 AT END OF TIME STEP    1, STRESS PERIOD    1
1
  VOLUMETRIC BUDGET FOR ENTIRE MODEL AT END OF TIME STEP    1, STRESS PERIOD   1
  ------------------------------------------------------------------------------

     CUMULATIVE VOLUMES      L**3       RATES FOR THIS TIME STEP      L**3/T
     ------------------                 ------------------------

           IN:                                      IN:
           ---                                      ---
             STORAGE =    18419255.7316               STORAGE =      200209.3014
       CONSTANT HEAD =     1247067.6582         CONSTANT HEAD =       13555.0832
               WELLS =           0.0000                 WELLS =           0.0000
            RECHARGE =     1269600.0000              RECHARGE =       13800.0000
      STREAM LEAKAGE =      380292.7512        STREAM LEAKAGE =        4133.6169

            TOTAL IN =    21316216.1410              TOTAL IN =      231698.0015

          OUT:                                     OUT:
          ----                                     ----
             STORAGE =           0.0000               STORAGE =           0.0000
       CONSTANT HEAD =           0.0000         CONSTANT HEAD =           0.0000
               WELLS =     3607945.7563                 WELLS =       39216.8017
            RECHARGE =           0.0000              RECHARGE =           0.0000
      STREAM LEAKAGE =    17708270.6795        STREAM LEAKAGE =      192481.2030

           TOTAL OUT =    21316216.4357             TOTAL OUT =      231698.0047

            IN - OUT =          -0.2947              IN - OUT =      -3.2033E-03

 PERCENT DISCREPANCY =          -0.00     PERCENT DISCREPANCY =          -0.00






         TIME SUMMARY AT END OF TIME STEP    1 IN STRESS PERIOD    1
                    SECONDS     MINUTES      HOURS       DAYS        YEARS
                    -----------------------------------------------------------
   TIME STEP LENGTH 7.94880E+06 1.32480E+05  2208.0      92.000     0.25188    
 STRESS PERIOD TIME 7.94880E+06 1.32480E+05  2208.0      92.000     0.25188    
         TOTAL TIME 7.94880E+06 1.32480E+05  2208.0      92.000     0.25188    
1
1
                            STRESS PERIOD NO.    2, LENGTH =   91.00000    
                            -----------------------------------------------

                              NUMBER OF TIME STEPS =     1

                               MULTIPLIER FOR DELT =     1.500

                            INITIAL TIME STEP SIZE =   91.00000    

 WELL NO.  LAYER   ROW   COL   STRESS RATE         
 --------------------------------------------------
      1      1      9     21     -0.1443E+05
      2      1      5     25      -7885.    
      3      1     22     18      -7019.    
      4      1     19      6      -9882.    

      4 WELLS

                 RECHARGE =  2.000000E-03

 REUSING STREAM SEGMENT DATA FROM LAST STRESS PERIOD
 
 SOLVING FOR HEAD 


     7 CALLS TO PCG ROUTINE FOR TIME STEP   1 IN STRESS PERIOD    2
    27 TOTAL ITERATIONS

 OUTPUT CONTROL FOR STRESS PERIOD    2   TIME STEP    1
    SAVE BUDGET
    SAVE HEAD FOR ALL LAYERS
    PRINT HEAD FOR ALL LAYERS
 UBDSV2 SAVING "STREAMFLOW OUT  " ON UNIT  50 AT TIME STEP  1, STRESS PERIOD   2



 STREAM LISTING     PERIOD      2   STEP        1

 LAYER ROW COL. STREAM  RCH.  FLOW INTO     FLOW TO   FLOW OUT OF   OVRLND.     DIRECT     STREAM       STREAM     STREAM     STREAM   STREAMBED  STREAMBED
                SEG.NO.  NO.  STRM. RCH.    AQUIFER    STRM. RCH.    RUNOFF     PRECIP       ET          HEAD       DEPTH      WIDTH   CONDCTNC.   GRADIENT

   1   13    1     1     1    1.0000E+05 -3.7567E+03   1.0376E+05  0.000E+00  0.000E+00  0.000E+00  4.84076E+01  1.463E-01  2.000E+01  2.000E+04 -1.878E-01
   1   13    2     1     2    1.0376E+05 -5.0298E+03   1.0879E+05  0.000E+00  0.000E+00  0.000E+00  4.79341E+01  1.500E-01  2.000E+01  2.000E+04 -2.515E-01
   1   14    3     1     3    1.0879E+05 -1.0290E+03   1.0982E+05  0.000E+00  0.000E+00  0.000E+00  4.74594E+01  1.526E-01  2.000E+01  2.000E+04 -5.145E-02
   1   15    4     1     4    1.0982E+05 -9.7995E+02   1.1080E+05  0.000E+00  0.000E+00  0.000E+00  4.69830E+01  1.534E-01  2.000E+01  2.000E+04 -4.900E-02
   1   16    5     1     5    1.1080E+05 -2.4997E+03   1.1330E+05  0.000E+00  0.000E+00  0.000E+00  4.65071E+01  1.549E-01  2.000E+01  2.000E+04 -1.250E-01
   1   16    6     1     6    1.1330E+05 -1.2603E+03   1.1456E+05  0.000E+00  0.000E+00  0.000E+00  4.60314E+01  1.564E-01  2.000E+01  2.000E+04 -6.302E-02
   1   16    7     1     7    1.1456E+05 -1.3875E+03   1.1594E+05  0.000E+00  0.000E+00  0.000E+00  4.55552E+01  1.575E-01  2.000E+01  2.000E+04 -6.938E-02
   1   16    8     1     8    1.1594E+05 -1.6071E+03   1.1755E+05  0.000E+00  0.000E+00  0.000E+00  4.50792E+01  1.587E-01  2.000E+01  2.000E+04 -8.035E-02
   1   16    9     1     9    1.1755E+05 -1.7786E+03   1.1933E+05  0.000E+00  0.000E+00  0.000E+00  4.46033E+01  1.601E-01  2.000E+01  2.000E+04 -8.893E-02
   1   16   10     1    10    1.1933E+05 -1.8777E+03   1.2121E+05  0.000E+00  0.000E+00  0.000E+00  4.41275E+01  1.616E-01  2.000E+01  2.000E+04 -9.389E-02
   1   16   11     1    11    1.2121E+05 -1.9414E+03   1.2315E+05  0.000E+00  0.000E+00  0.000E+00  4.36518E+01  1.631E-01  2.000E+01  2.000E+04 -9.707E-02
   1   16   12     1    12    1.2315E+05 -3.5313E+03   1.2668E+05  0.000E+00  0.000E+00  0.000E+00  4.31767E+01  1.653E-01  2.000E+01  2.000E+04 -1.766E-01
   1   15   13     1    13    1.2668E+05 -3.7121E+03   1.3039E+05  0.000E+00  0.000E+00  0.000E+00  4.27023E+01  1.682E-01  2.000E+01  2.000E+04 -1.856E-01
   1   14   14     1    14    1.3039E+05 -4.1549E+03   1.3455E+05  0.000E+00  0.000E+00  0.000E+00  4.22281E+01  1.712E-01  2.000E+01  2.000E+04 -2.077E-01
   1   13   15     1    15    1.3455E+05 -4.5096E+03   1.3906E+05  0.000E+00  0.000E+00  0.000E+00  4.17541E+01  1.746E-01  2.000E+01  2.000E+04 -2.255E-01
   1   12   16     1    16    1.3906E+05 -5.1605E+03   1.4422E+05  0.000E+00  0.000E+00  0.000E+00  4.12805E+01  1.782E-01  2.000E+01  2.000E+04 -2.580E-01
   1   12   17     1    17    1.4422E+05 -3.1806E+03   1.4740E+05  0.000E+00  0.000E+00  0.000E+00  4.08064E+01  1.814E-01  2.000E+01  2.000E+04 -1.590E-01
   1   12   18     1    18    1.4740E+05 -2.7565E+03   1.5015E+05  0.000E+00  0.000E+00  0.000E+00  4.03313E+01  1.836E-01  2.000E+01  2.000E+04 -1.378E-01
   1   12   19     1    19    1.5015E+05 -2.7043E+03   1.5286E+05  0.000E+00  0.000E+00  0.000E+00  3.98561E+01  1.856E-01  2.000E+01  2.000E+04 -1.352E-01
   1   13   20     1    20    1.5286E+05 -2.4358E+03   1.5529E+05  0.000E+00  0.000E+00  0.000E+00  3.93807E+01  1.875E-01  2.000E+01  2.000E+04 -1.218E-01
   1   14   21     1    21    1.5529E+05 -2.9462E+03   1.5824E+05  0.000E+00  0.000E+00  0.000E+00  3.89054E+01  1.894E-01  2.000E+01  2.000E+04 -1.473E-01
   1   14   22     1    22    1.5824E+05  4.6419E+03   1.5360E+05  0.000E+00  0.000E+00  0.000E+00  3.84275E+01  1.888E-01  2.000E+01  2.000E+04  2.321E-01
   1    9   30     2     1    5.0000E+04 -1.6002E+03   5.1600E+04  0.000E+00  0.000E+00  0.000E+00  4.02420E+01  1.170E-01  2.000E+01  2.000E+04 -8.001E-02
   1    9   29     2     2    5.1600E+04 -1.8421E+03   5.3442E+04  0.000E+00  0.000E+00  0.000E+00  3.99943E+01  1.193E-01  2.000E+01  2.000E+04 -9.210E-02
   1    9   28     2     3    5.3442E+04 -1.9790E+03   5.5421E+04  0.000E+00  0.000E+00  0.000E+00  3.97469E+01  1.219E-01  2.000E+01  2.000E+04 -9.895E-02
   1    9   27     2     4    5.5421E+04 -3.1201E+03   5.8541E+04  0.000E+00  0.000E+00  0.000E+00  3.95003E+01  1.253E-01  2.000E+01  2.000E+04 -1.560E-01
   1   10   26     2     5    5.8541E+04 -2.2672E+03   6.0809E+04  0.000E+00  0.000E+00  0.000E+00  3.92538E+01  1.288E-01  2.000E+01  2.000E+04 -1.134E-01
   1   11   25     2     6    6.0809E+04 -1.8885E+03   6.2697E+04  0.000E+00  0.000E+00  0.000E+00  3.90065E+01  1.315E-01  2.000E+01  2.000E+04 -9.442E-02
   1   12   24     2     7    6.2697E+04 -1.6899E+03   6.4387E+04  0.000E+00  0.000E+00  0.000E+00  3.87588E+01  1.338E-01  2.000E+01  2.000E+04 -8.449E-02
   1   13   23     2     8    6.4387E+04 -3.7142E+02   6.4758E+04  0.000E+00  0.000E+00  0.000E+00  3.85101E+01  1.351E-01  2.000E+01  2.000E+04 -1.857E-02
   1   14   22     2     9    6.4758E+04  1.2829E+03   6.3475E+04  0.000E+00  0.000E+00  0.000E+00  3.82595E+01  1.345E-01  2.000E+01  2.000E+04  6.414E-02
   1   14   22     3     1    2.1707E+05 -8.9273E+03   2.2600E+05  0.000E+00  0.000E+00  0.000E+00  3.77490E+01  1.934E-01  2.000E+01  2.000E+04 -4.464E-01
   1   15   23     3     2    2.2600E+05 -9.7553E+02   2.2698E+05  0.000E+00  0.000E+00  0.000E+00  3.68627E+01  1.960E-01  2.000E+01  2.000E+04 -4.878E-02
   1   15   24     3     3    2.2698E+05 -6.4615E+02   2.2762E+05  0.000E+00  0.000E+00  0.000E+00  3.59742E+01  1.965E-01  2.000E+01  2.000E+04 -3.231E-02
   1   15   25     3     4    2.2762E+05 -6.6001E+02   2.2828E+05  0.000E+00  0.000E+00  0.000E+00  3.50857E+01  1.968E-01  2.000E+01  2.000E+04 -3.300E-02
   1   15   26     3     5    2.2828E+05 -7.6658E+02   2.2905E+05  0.000E+00  0.000E+00  0.000E+00  3.41972E+01  1.972E-01  2.000E+01  2.000E+04 -3.833E-02
   1   16   27     3     6    2.2905E+05 -8.8748E+02   2.2994E+05  0.000E+00  0.000E+00  0.000E+00  3.33087E+01  1.976E-01  2.000E+01  2.000E+04 -4.437E-02
   1   17   28     3     7    2.2994E+05 -3.1981E+03   2.3313E+05  0.000E+00  0.000E+00  0.000E+00  3.24209E+01  1.986E-01  2.000E+01  2.000E+04 -1.599E-01
   1   18   29     3     8    2.3313E+05 -4.9173E+03   2.3805E+05  0.000E+00  0.000E+00  0.000E+00  3.15341E+01  2.007E-01  2.000E+01  2.000E+04 -2.459E-01
   1   18   30     3     9    2.3805E+05 -4.6034E+03   2.4265E+05  0.000E+00  0.000E+00  0.000E+00  3.06476E+01  2.031E-01  2.000E+01  2.000E+04 -2.302E-01



1
              HEAD IN LAYER   1 AT END OF TIME STEP   1 IN STRESS PERIOD    2
  ---------------------------------------------------------------------------

          1      2      3      4      5      6      7      8      9     10
         11     12     13     14     15     16     17     18     19     20
         21     22     23     24     25     26     27     28     29     30
 .........................................................................
   1  ****** ****** ****** ****** ****** ****** ****** ****** ****** ******
      ****** ****** ****** ****** ****** ****** ****** ****** ****** ******
      ****** ****** ****** ****** ****** ****** ****** ****** ****** ******
   2  ****** ****** ****** ****** ****** ****** ****** ****** ****** ******
      ****** ****** ****** ****** ****** ****** ****** ****** ****** ******
      ****** ****** ****** ****** ****** ****** ****** ****** ****** ******
   3  ****** ****** ****** ****** ****** ****** ****** ****** ****** ******
      ****** ****** ****** ****** ****** ****** ****** ****** ****** ******
      ****** ****** ****** ****** ****** ****** ****** ****** ****** ******
   4  ****** ****** ****** ****** ****** ****** ****** ****** ****** ******
      ****** ****** ****** ****** ****** ****** ****** ****** ****** ******
      ****** ****** ****** ****** ****** ****** ****** ****** ****** ******
   5  ****** ****** ****** ****** ****** ****** ****** ****** ****** ******
      ****** ****** ****** ****** ****** ****** ****** ****** ****** ******
      ****** ****** ****** ****** ****** ****** ****** ****** ****** ******
   6  ****** ****** ****** ****** ****** ****** ****** ****** ****** ******
      ****** ****** ****** ****** ****** ****** ****** ****** ****** ******
      ****** ****** ****** ****** ****** ****** ****** ****** ****** ******
   7  ****** ****** ****** ****** ****** ****** ****** ****** ****** ******
      ****** ****** ****** ****** ****** ****** ****** ****** ****** ******
      ****** ****** ****** ****** ****** ****** ****** ****** ****** ******
   8  ****** ****** ****** ****** ****** ****** ****** ****** ****** ******
      ****** ****** ****** ****** ****** ****** ****** ****** ****** ******
      ****** ****** ****** ****** ****** ****** ****** ****** ****** ******
   9  ****** ****** ****** ****** ****** ****** ****** ****** ****** ******
      ****** ****** ****** ****** ****** ****** ****** ****** ****** ******
      ****** ****** ****** ****** ****** ****** ****** ****** ****** ******
  10  ****** ****** ****** ****** ****** ****** ****** ****** ****** ******
      ****** ****** ****** ****** ****** ****** ****** ****** ****** ******
      ****** ****** ****** ****** ****** ****** ****** ****** ****** ******
  11  ****** ****** ****** ****** ****** ****** ****** ****** ****** ******
      ****** ****** ****** ****** ****** ****** ****** ****** ****** ******
      ****** ****** ****** ****** ****** ****** ****** ****** ****** ******
  12  ****** ****** ****** ****** ****** ****** ****** ****** ****** ******
      ****** ****** ****** ****** ****** ****** ****** ****** ****** ******
      ****** ****** ****** ****** ****** ****** ****** ****** ****** ******
  13  ****** ****** ****** ****** ****** ****** ****** ****** ****** ******
      ****** ****** ****** ****** ****** ****** ****** ****** ****** ******
      ****** ****** ****** ****** ****** ****** ****** ****** ****** ******
  14  ****** ****** ****** ****** ****** ****** ****** ****** ****** ******
      ****** ****** ****** ****** ****** ****** ****** ****** ****** ******
      ****** ****** ****** ****** ****** ****** ****** ****** ****** ******
  15  ****** ****** ****** ****** ****** ****** ****** ****** ****** ******
      ****** ****** ****** ****** ****** ****** ****** ****** ****** ******
      ****** ****** ****** ****** ****** ****** ****** ****** ****** ******
  16  ****** ****** ****** ****** ****** ****** ****** ****** ****** ******
      ****** ****** ****** ****** ****** ****** ****** ****** ****** ******
      ****** ****** ****** ****** ****** ****** ****** ****** ****** ******
  17  ****** ****** ****** ****** ****** ****** ****** ****** ****** ******
      ****** ****** ****** ****** ****** ****** ****** ****** ****** ******
      ****** ****** ****** ****** ****** ****** ****** ****** ****** ******
  18  ****** ****** ****** ****** ****** ****** ****** ****** ****** ******
      ****** ****** ****** ****** ****** ****** ****** ****** ****** ******
      ****** ****** ****** ****** ****** ****** ****** ****** ****** ******
  19  ****** ****** ****** ****** ****** ****** ****** ****** ****** ******
      ****** ****** ****** ****** ****** ****** ****** ****** ****** ******
      ****** ****** ****** ****** ****** ****** ****** ****** ****** ******
  20  ****** ****** ****** ****** ****** ****** ****** ****** ****** ******
      ****** ****** ****** ****** ****** ****** ****** ****** ****** ******
      ****** ****** ****** ****** ****** ****** ****** ****** ****** ******
  21  ****** ****** ****** ****** ****** ****** ****** ****** ****** ******
      ****** ****** ****** ****** ****** ****** ****** ****** ****** ******
      ****** ****** ****** ****** ****** ****** ****** ****** ****** ******
  22  ****** ****** ****** ****** ****** ****** ****** ****** ****** ******
      ****** ****** ****** ****** ****** ****** ****** ****** ****** ******
      ****** ****** ****** ****** ****** ****** ****** ****** ****** ******
  23  ****** ****** ****** ****** ****** ****** ****** ****** ****** ******
      ****** ****** ****** ****** ****** ****** ****** ****** ****** ******
      ****** ****** ****** ****** ****** ****** ****** ****** ****** ******
  24  ****** ****** ****** ****** ****** ****** ****** ****** ****** ******
      ****** ****** ****** ****** ****** ****** ****** ****** ****** ******
      ****** ****** ****** ****** ****** ****** ****** ****** ****** ******
  25  ****** ****** ****** ****** ****** ****** ****** ****** ****** ******
      ****** ****** ****** ****** ****** ****** ****** ****** ****** ******
      ****** ****** ****** ****** ****** ****** ****** ****** ****** ******

 HEAD WILL BE SAVED ON UNIT   51 AT END OF TIME STEP    1, STRESS PERIOD    2
1
  VOLUMETRIC BUDGET FOR ENTIRE MODEL AT END OF TIME STEP    1, STRESS PERIOD   2
  ------------------------------------------------------------------------------

     CUMULATIVE VOLUMES      L**3       RATES FOR THIS TIME STEP      L**3/T
     ------------------                 ------------------------

           IN:                                      IN:
           ---                                      ---
             STORAGE =    23679558.4953               STORAGE =       57805.5249
       CONSTANT HEAD =     2963894.9774         CONSTANT HEAD =       18866.2343
               WELLS =           0.0000                 WELLS =           0.0000
            RECHARGE =     6292800.0000              RECHARGE =       55200.0000
      STREAM LEAKAGE =      919445.6524        STREAM LEAKAGE =        5924.7572

            TOTAL IN =    33855699.1251              TOTAL IN =      137796.5163

          OUT:                                     OUT:
          ----                                     ----
             STORAGE =           0.0000               STORAGE =           0.0000
       CONSTANT HEAD =           0.0000         CONSTANT HEAD =           0.0000
               WELLS =     7176674.7108                 WELLS =       39216.8017
            RECHARGE =           0.0000              RECHARGE =           0.0000
      STREAM LEAKAGE =    26679025.7124        STREAM LEAKAGE =       98579.7256

           TOTAL OUT =    33855700.4232             TOTAL OUT =      137796.5273

            IN - OUT =          -1.2981              IN - OUT =      -1.1026E-02

 PERCENT DISCREPANCY =          -0.00     PERCENT DISCREPANCY =          -0.00






         TIME SUMMARY AT END OF TIME STEP    1 IN STRESS PERIOD    2
                    SECONDS     MINUTES      HOURS       DAYS        YEARS
                    -----------------------------------------------------------
   TIME STEP LENGTH 7.86240E+06 1.31040E+05  2184.0      91.000     0.24914    
 STRESS PERIOD TIME 7.86240E+06 1.31040E+05  2184.0      91.000     0.24914    
         TOTAL TIME 1.58112E+07 2.63520E+05  4392.0      183.00     0.50103    
1
1
                            STRESS PERIOD NO.    3, LENGTH =   91.00000    
                            -----------------------------------------------

                              NUMBER OF TIME STEPS =     1

                               MULTIPLIER FOR DELT =     1.500

                            INITIAL TIME STEP SIZE =   91.00000    

 WELL NO.  LAYER   ROW   COL   STRESS RATE         
 --------------------------------------------------
      1      1      9     21     -0.1443E+05
      2      1      5     25      -7885.    
      3      1     22     18      -7019.    
      4      1     19      6      -9882.    

      4 WELLS

                 RECHARGE =   0.00000    

 REUSING STREAM SEGMENT DATA FROM LAST STRESS PERIOD
 
 SOLVING FOR HEAD 


     7 CALLS TO PCG ROUTINE FOR TIME STEP   1 IN STRESS PERIOD    3
    27 TOTAL ITERATIONS

 OUTPUT CONTROL FOR STRESS PERIOD    3   TIME STEP    1
    SAVE BUDGET
    SAVE HEAD FOR ALL LAYERS
    PRINT HEAD FOR ALL LAYERS
 UBDSV2 SAVING "STREAMFLOW OUT  " ON UNIT  50 AT TIME STEP  1, STRESS PERIOD   3



 STREAM LISTING     PERIOD      3   STEP        1

 LAYER ROW COL. STREAM  RCH.  FLOW INTO     FLOW TO   FLOW OUT OF   OVRLND.     DIRECT     STREAM       STREAM     STREAM     STREAM   STREAMBED  STREAMBED
                SEG.NO.  NO.  STRM. RCH.    AQUIFER    STRM. RCH.    RUNOFF     PRECIP       ET          HEAD       DEPTH      WIDTH   CONDCTNC.   GRADIENT

   1   13    1     1     1    1.0000E+05 -2.4557E+03   1.0246E+05  0.000E+00  0.000E+00  0.000E+00  4.84071E+01  1.457E-01  2.000E+01  2.000E+04 -1.228E-01
   1   13    2     1     2    1.0246E+05 -3.5780E+03   1.0603E+05  0.000E+00  0.000E+00  0.000E+00  4.79324E+01  1.483E-01  2.000E+01  2.000E+04 -1.789E-01
   1   14    3     1     3    1.0603E+05 -5.5069E+02   1.0658E+05  0.000E+00  0.000E+00  0.000E+00  4.74569E+01  1.501E-01  2.000E+01  2.000E+04 -2.753E-02
   1   15    4     1     4    1.0658E+05 -4.4881E+02   1.0703E+05  0.000E+00  0.000E+00  0.000E+00  4.69800E+01  1.505E-01  2.000E+01  2.000E+04 -2.244E-02
   1   16    5     1     5    1.0703E+05 -5.0815E+02   1.0754E+05  0.000E+00  0.000E+00  0.000E+00  4.65032E+01  1.509E-01  2.000E+01  2.000E+04 -2.541E-02
   1   16    6     1     6    1.0754E+05 -1.6158E+02   1.0770E+05  0.000E+00  0.000E+00  0.000E+00  4.60262E+01  1.512E-01  2.000E+01  2.000E+04 -8.079E-03
   1   16    7     1     7    1.0770E+05 -3.5797E+02   1.0806E+05  0.000E+00  0.000E+00  0.000E+00  4.55491E+01  1.514E-01  2.000E+01  2.000E+04 -1.790E-02
   1   16    8     1     8    1.0806E+05 -6.0153E+02   1.0866E+05  0.000E+00  0.000E+00  0.000E+00  4.50722E+01  1.518E-01  2.000E+01  2.000E+04 -3.008E-02
   1   16    9     1     9    1.0866E+05 -7.8136E+02   1.0944E+05  0.000E+00  0.000E+00  0.000E+00  4.45956E+01  1.524E-01  2.000E+01  2.000E+04 -3.907E-02
   1   16   10     1    10    1.0944E+05 -8.8244E+02   1.1033E+05  0.000E+00  0.000E+00  0.000E+00  4.41190E+01  1.531E-01  2.000E+01  2.000E+04 -4.412E-02
   1   16   11     1    11    1.1033E+05 -9.3762E+02   1.1126E+05  0.000E+00  0.000E+00  0.000E+00  4.36425E+01  1.538E-01  2.000E+01  2.000E+04 -4.688E-02
   1   16   12     1    12    1.1126E+05 -1.7929E+03   1.1306E+05  0.000E+00  0.000E+00  0.000E+00  4.31663E+01  1.550E-01  2.000E+01  2.000E+04 -8.965E-02
   1   15   13     1    13    1.1306E+05 -1.9716E+03   1.1503E+05  0.000E+00  0.000E+00  0.000E+00  4.26906E+01  1.565E-01  2.000E+01  2.000E+04 -9.858E-02
   1   14   14     1    14    1.1503E+05 -2.3786E+03   1.1741E+05  0.000E+00  0.000E+00  0.000E+00  4.22151E+01  1.583E-01  2.000E+01  2.000E+04 -1.189E-01
   1   13   15     1    15    1.1741E+05 -2.7315E+03   1.2014E+05  0.000E+00  0.000E+00  0.000E+00  4.17399E+01  1.604E-01  2.000E+01  2.000E+04 -1.366E-01
   1   12   16     1    16    1.2014E+05 -3.3035E+03   1.2344E+05  0.000E+00  0.000E+00  0.000E+00  4.12651E+01  1.628E-01  2.000E+01  2.000E+04 -1.652E-01
   1   12   17     1    17    1.2344E+05 -1.8207E+03   1.2526E+05  0.000E+00  0.000E+00  0.000E+00  4.07899E+01  1.649E-01  2.000E+01  2.000E+04 -9.103E-02
   1   12   18     1    18    1.2526E+05 -1.4045E+03   1.2667E+05  0.000E+00  0.000E+00  0.000E+00  4.03139E+01  1.661E-01  2.000E+01  2.000E+04 -7.023E-02
   1   12   19     1    19    1.2667E+05 -9.7990E+02   1.2765E+05  0.000E+00  0.000E+00  0.000E+00  3.98375E+01  1.671E-01  2.000E+01  2.000E+04 -4.900E-02
   1   13   20     1    20    1.2765E+05 -8.7345E+02   1.2852E+05  0.000E+00  0.000E+00  0.000E+00  3.93610E+01  1.678E-01  2.000E+01  2.000E+04 -4.367E-02
   1   14   21     1    21    1.2852E+05 -1.3698E+03   1.2989E+05  0.000E+00  0.000E+00  0.000E+00  3.88846E+01  1.687E-01  2.000E+01  2.000E+04 -6.849E-02
   1   14   22     1    22    1.2989E+05  5.0233E+03   1.2487E+05  0.000E+00  0.000E+00  0.000E+00  3.84059E+01  1.673E-01  2.000E+01  2.000E+04  2.512E-01
   1    9   30     2     1    5.0000E+04 -3.1001E+02   5.0310E+04  0.000E+00  0.000E+00  0.000E+00  4.02411E+01  1.161E-01  2.000E+01  2.000E+04 -1.550E-02
   1    9   29     2     2    5.0310E+04 -5.4893E+02   5.0859E+04  0.000E+00  0.000E+00  0.000E+00  3.99917E+01  1.167E-01  2.000E+01  2.000E+04 -2.745E-02
   1    9   28     2     3    5.0859E+04 -6.6016E+02   5.1519E+04  0.000E+00  0.000E+00  0.000E+00  3.97425E+01  1.175E-01  2.000E+01  2.000E+04 -3.301E-02
   1    9   27     2     4    5.1519E+04 -1.1770E+03   5.2696E+04  0.000E+00  0.000E+00  0.000E+00  3.94938E+01  1.188E-01  2.000E+01  2.000E+04 -5.885E-02
   1   10   26     2     5    5.2696E+04 -4.9473E+02   5.3191E+04  0.000E+00  0.000E+00  0.000E+00  3.92449E+01  1.199E-01  2.000E+01  2.000E+04 -2.474E-02
   1   11   25     2     6    5.3191E+04 -2.5021E+02   5.3441E+04  0.000E+00  0.000E+00  0.000E+00  3.89954E+01  1.204E-01  2.000E+01  2.000E+04 -1.251E-02
   1   12   24     2     7    5.3441E+04 -2.2320E+02   5.3664E+04  0.000E+00  0.000E+00  0.000E+00  3.87457E+01  1.207E-01  2.000E+01  2.000E+04 -1.116E-02
   1   13   23     2     8    5.3664E+04 -1.9017E+01   5.3683E+04  0.000E+00  0.000E+00  0.000E+00  3.84959E+01  1.209E-01  2.000E+01  2.000E+04 -9.508E-04
   1   14   22     2     9    5.3683E+04  1.7993E+03   5.1884E+04  0.000E+00  0.000E+00  0.000E+00  3.82447E+01  1.197E-01  2.000E+01  2.000E+04  8.997E-02
   1   14   22     3     1    1.7675E+05 -8.5559E+03   1.8531E+05  0.000E+00  0.000E+00  0.000E+00  3.77269E+01  1.714E-01  2.000E+01  2.000E+04 -4.278E-01
   1   15   23     3     2    1.8531E+05 -5.6682E+02   1.8587E+05  0.000E+00  0.000E+00  0.000E+00  3.68406E+01  1.740E-01  2.000E+01  2.000E+04 -2.834E-02
   1   15   24     3     3    1.8587E+05 -3.1783E+02   1.8619E+05  0.000E+00  0.000E+00  0.000E+00  3.59520E+01  1.742E-01  2.000E+01  2.000E+04 -1.589E-02
   1   15   25     3     4    1.8619E+05 -3.1695E+02   1.8651E+05  0.000E+00  0.000E+00  0.000E+00  3.50633E+01  1.744E-01  2.000E+01  2.000E+04 -1.585E-02
   1   15   26     3     5    1.8651E+05 -3.6040E+02   1.8687E+05  0.000E+00  0.000E+00  0.000E+00  3.41746E+01  1.746E-01  2.000E+01  2.000E+04 -1.802E-02
   1   16   27     3     6    1.8687E+05 -4.1751E+02   1.8729E+05  0.000E+00  0.000E+00  0.000E+00  3.32859E+01  1.748E-01  2.000E+01  2.000E+04 -2.088E-02
   1   17   28     3     7    1.8729E+05 -1.7653E+03   1.8905E+05  0.000E+00  0.000E+00  0.000E+00  3.23976E+01  1.754E-01  2.000E+01  2.000E+04 -8.827E-02
   1   18   29     3     8    1.8905E+05 -3.3525E+03   1.9240E+05  0.000E+00  0.000E+00  0.000E+00  3.15102E+01  1.768E-01  2.000E+01  2.000E+04 -1.676E-01
   1   18   30     3     9    1.9240E+05 -3.4383E+03   1.9584E+05  0.000E+00  0.000E+00  0.000E+00  3.06232E+01  1.787E-01  2.000E+01  2.000E+04 -1.719E-01



1
              HEAD IN LAYER   1 AT END OF TIME STEP   1 IN STRESS PERIOD    3
  ---------------------------------------------------------------------------

          1      2      3      4      5      6      7      8      9     10
         11     12     13     14     15     16     17     18     19     20
         21     22     23     24     25     26     27     28     29     30
 .........................................................................
   1  ****** ****** ****** ****** ****** ****** ****** ****** ****** ******
      ****** ****** ****** ****** ****** ****** ****** ****** ****** ******
      ****** ****** ****** ****** ****** ****** ****** ****** ****** ******
   2  ****** ****** ****** ****** ****** ****** ****** ****** ****** ******
      ****** ****** ****** ****** ****** ****** ****** ****** ****** ******
      ****** ****** ****** ****** ****** ****** ****** ****** ****** ******
   3  ****** ****** ****** ****** ****** ****** ****** ****** ****** ******
      ****** ****** ****** ****** ****** ****** ****** ****** ****** ******
      ****** ****** ****** ****** ****** ****** ****** ****** ****** ******
   4  ****** ****** ****** ****** ****** ****** ****** ****** ****** ******
      ****** ****** ****** ****** ****** ****** ****** ****** ****** ******
      ****** ****** ****** ****** ****** ****** ****** ****** ****** ******
   5  ****** ****** ****** ****** ****** ****** ****** ****** ****** ******
      ****** ****** ****** ****** ****** ****** ****** ****** ****** ******
      ****** ****** ****** ****** ****** ****** ****** ****** ****** ******
   6  ****** ****** ****** ****** ****** ****** ****** ****** ****** ******
      ****** ****** ****** ****** ****** ****** ****** ****** ****** ******
      ****** ****** ****** ****** ****** ****** ****** ****** ****** ******
   7  ****** ****** ****** ****** ****** ****** ****** ****** ****** ******
      ****** ****** ****** ****** ****** ****** ****** ****** ****** ******
      ****** ****** ****** ****** ****** ****** ****** ****** ****** ******
   8  ****** ****** ****** ****** ****** ****** ****** ****** ****** ******
      ****** ****** ****** ****** ****** ****** ****** ****** ****** ******
      ****** ****** ****** ****** ****** ****** ****** ****** ****** ******
   9  ****** ****** ****** ****** ****** ****** ****** ****** ****** ******
      ****** ****** ****** ****** ****** ****** ****** ****** ****** ******
      ****** ****** ****** ****** ****** ****** ****** ****** ****** ******
  10  ****** ****** ****** ****** ****** ****** ****** ****** ****** ******
      ****** ****** ****** ****** ****** ****** ****** ****** ****** ******
      ****** ****** ****** ****** ****** ****** ****** ****** ****** ******
  11  ****** ****** ****** ****** ****** ****** ****** ****** ****** ******
      ****** ****** ****** ****** ****** ****** ****** ****** ****** ******
      ****** ****** ****** ****** ****** ****** ****** ****** ****** ******
  12  ****** ****** ****** ****** ****** ****** ****** ****** ****** ******
      ****** ****** ****** ****** ****** ****** ****** ****** ****** ******
      ****** ****** ****** ****** ****** ****** ****** ****** ****** ******
  13  ****** ****** ****** ****** ****** ****** ****** ****** ****** ******
      ****** ****** ****** ****** ****** ****** ****** ****** ****** ******
      ****** ****** ****** ****** ****** ****** ****** ****** ****** ******
  14  ****** ****** ****** ****** ****** ****** ****** ****** ****** ******
      ****** ****** ****** ****** ****** ****** ****** ****** ****** ******
      ****** ****** ****** ****** ****** ****** ****** ****** ****** ******
  15  ****** ****** ****** ****** ****** ****** ****** ****** ****** ******
      ****** ****** ****** ****** ****** ****** ****** ****** ****** ******
      ****** ****** ****** ****** ****** ****** ****** ****** ****** ******
  16  ****** ****** ****** ****** ****** ****** ****** ****** ****** ******
      ****** ****** ****** ****** ****** ****** ****** ****** ****** ******
      ****** ****** ****** ****** ****** ****** ****** ****** ****** ******
  17  ****** ****** ****** ****** ****** ****** ****** ****** ****** ******
      ****** ****** ****** ****** ****** ****** ****** ****** ****** ******
      ****** ****** ****** ****** ****** ****** ****** ****** ****** ******
  18  ****** ****** ****** ****** ****** ****** ****** ****** ****** ******
      ****** ****** ****** ****** ****** ****** ****** ****** ****** ******
      ****** ****** ****** ****** ****** ****** ****** ****** ****** ******
  19  ****** ****** ****** ****** ****** ****** ****** ****** ****** ******
      ****** ****** ****** ****** ****** ****** ****** ****** ****** ******
      ****** ****** ****** ****** ****** ****** ****** ****** ****** ******
  20  ****** ****** ****** ****** ****** ****** ****** ****** ****** ******
      ****** ****** ****** ****** ****** ****** ****** ****** ****** ******
      ****** ****** ****** ****** ****** ****** ****** ****** ****** ******
  21  ****** ****** ****** ****** ****** ****** ****** ****** ****** ******
      ****** ****** ****** ****** ****** ****** ****** ****** ****** ******
      ****** ****** ****** ****** ****** ****** ****** ****** ****** ******
  22  ****** ****** ****** ****** ****** ****** ****** ****** ****** ******
      ****** ****** ****** ****** ****** ****** ****** ****** ****** ******
      ****** ****** ****** ****** ****** ****** ****** ****** ****** ******
  23  ****** ****** ****** ****** ****** ****** ****** ****** ****** ******
      ****** ****** ****** ****** ****** ****** ****** ****** ****** ******
      ****** ****** ****** ****** ****** ****** ****** ****** ****** ******
  24  ****** ****** ****** ****** ****** ****** ****** ****** ****** ******
      ****** ****** ****** ****** ****** ****** ****** ****** ****** ******
      ****** ****** ****** ****** ****** ****** ****** ****** ****** ******
  25  ****** ****** ****** ****** ****** ****** ****** ****** ****** ******
      ****** ****** ****** ****** ****** ****** ****** ****** ****** ******
      ****** ****** ****** ****** ****** ****** ****** ****** ****** ******

 HEAD WILL BE SAVED ON UNIT   51 AT END OF TIME STEP    1, STRESS PERIOD    3
1
  VOLUMETRIC BUDGET FOR ENTIRE MODEL AT END OF TIME STEP    1, STRESS PERIOD   3
  ------------------------------------------------------------------------------

     CUMULATIVE VOLUMES      L**3       RATES FOR THIS TIME STEP      L**3/T
     ------------------                 ------------------------

           IN:                                      IN:
           ---                                      ---
             STORAGE =    28881448.2523               STORAGE =       57163.6237
       CONSTANT HEAD =     5502395.4373         CONSTANT HEAD =       27895.6094
               WELLS =           0.0000                 WELLS =           0.0000
            RECHARGE =     6292800.0000              RECHARGE =           0.0000
      STREAM LEAKAGE =     1540301.7262        STREAM LEAKAGE =        6822.5942

            TOTAL IN =    42216945.4157              TOTAL IN =       91881.8274

          OUT:                                     OUT:
          ----                                     ----
             STORAGE =           0.0000               STORAGE =           0.0000
       CONSTANT HEAD =           0.0000         CONSTANT HEAD =           0.0000
               WELLS =    10745403.6654                 WELLS =       39216.8017
            RECHARGE =           0.0000              RECHARGE =           0.0000
      STREAM LEAKAGE =    31471543.8011        STREAM LEAKAGE =       52665.0339

           TOTAL OUT =    42216947.4665             TOTAL OUT =       91881.8356

            IN - OUT =          -2.0508              IN - OUT =      -8.2714E-03

 PERCENT DISCREPANCY =          -0.00     PERCENT DISCREPANCY =          -0.00






         TIME SUMMARY AT END OF TIME STEP    1 IN STRESS PERIOD    3
                    SECONDS     MINUTES      HOURS       DAYS        YEARS
                    -----------------------------------------------------------
   TIME STEP LENGTH 7.86240E+06 1.31040E+05  2184.0      91.000     0.24914    
 STRESS PERIOD TIME 7.86240E+06 1.31040E+05  2184.0      91.000     0.24914    
         TOTAL TIME 2.36736E+07 3.94560E+05  6576.0      274.00     0.75017    
1
1
                            STRESS PERIOD NO.    4, LENGTH =   91.00000    
                            -----------------------------------------------

                              NUMBER OF TIME STEPS =     1

                               MULTIPLIER FOR DELT =     1.500

                            INITIAL TIME STEP SIZE =   91.00000    

 WELL NO.  LAYER   ROW   COL   STRESS RATE         
 --------------------------------------------------
      1      1      9     21     -0.1443E+05
      2      1      5     25      -7885.    
      3      1     22     18      -7019.    
      4      1     19      6      -9882.    

      4 WELLS

                 RECHARGE =  1.000000E-03

 REUSING STREAM SEGMENT DATA FROM LAST STRESS PERIOD
 
 SOLVING FOR HEAD 


     6 CALLS TO PCG ROUTINE FOR TIME STEP   1 IN STRESS PERIOD    4
    23 TOTAL ITERATIONS

 OUTPUT CONTROL FOR STRESS PERIOD    4   TIME STEP    1
    SAVE BUDGET
    SAVE HEAD FOR ALL LAYERS
    PRINT HEAD FOR ALL LAYERS
 UBDSV2 SAVING "STREAMFLOW OUT  " ON UNIT  50 AT TIME STEP  1, STRESS PERIOD   4



 STREAM LISTING     PERIOD      4   STEP        1

 LAYER ROW COL. STREAM  RCH.  FLOW INTO     FLOW TO   FLOW OUT OF   OVRLND.     DIRECT     STREAM       STREAM     STREAM     STREAM   STREAMBED  STREAMBED
                SEG.NO.  NO.  STRM. RCH.    AQUIFER    STRM. RCH.    RUNOFF     PRECIP       ET          HEAD       DEPTH      WIDTH   CONDCTNC.   GRADIENT

   1   13    1     1     1    1.0000E+05 -2.1961E+03   1.0220E+05  0.000E+00  0.000E+00  0.000E+00  4.84070E+01  1.456E-01  2.000E+01  2.000E+04 -1.098E-01
   1   13    2     1     2    1.0220E+05 -3.2819E+03   1.0548E+05  0.000E+00  0.000E+00  0.000E+00  4.79320E+01  1.480E-01  2.000E+01  2.000E+04 -1.641E-01
   1   14    3     1     3    1.0548E+05 -5.1396E+02   1.0599E+05  0.000E+00  0.000E+00  0.000E+00  4.74564E+01  1.496E-01  2.000E+01  2.000E+04 -2.570E-02
   1   15    4     1     4    1.0599E+05 -3.9835E+02   1.0639E+05  0.000E+00  0.000E+00  0.000E+00  4.69795E+01  1.500E-01  2.000E+01  2.000E+04 -1.992E-02
   1   16    5     1     5    1.0639E+05 -1.1611E+02   1.0651E+05  0.000E+00  0.000E+00  0.000E+00  4.65025E+01  1.502E-01  2.000E+01  2.000E+04 -5.806E-03
   1   16    6     1     6    1.0651E+05  2.9363E+01   1.0648E+05  0.000E+00  0.000E+00  0.000E+00  4.60252E+01  1.502E-01  2.000E+01  2.000E+04  1.468E-03
   1   16    7     1     7    1.0648E+05 -1.8351E+02   1.0666E+05  0.000E+00  0.000E+00  0.000E+00  4.55480E+01  1.503E-01  2.000E+01  2.000E+04 -9.175E-03
   1   16    8     1     8    1.0666E+05 -4.3380E+02   1.0709E+05  0.000E+00  0.000E+00  0.000E+00  4.50710E+01  1.505E-01  2.000E+01  2.000E+04 -2.169E-02
   1   16    9     1     9    1.0709E+05 -6.1783E+02   1.0771E+05  0.000E+00  0.000E+00  0.000E+00  4.45942E+01  1.510E-01  2.000E+01  2.000E+04 -3.089E-02
   1   16   10     1    10    1.0771E+05 -7.2270E+02   1.0843E+05  0.000E+00  0.000E+00  0.000E+00  4.41175E+01  1.515E-01  2.000E+01  2.000E+04 -3.614E-02
   1   16   11     1    11    1.0843E+05 -7.7649E+02   1.0921E+05  0.000E+00  0.000E+00  0.000E+00  4.36408E+01  1.522E-01  2.000E+01  2.000E+04 -3.882E-02
   1   16   12     1    12    1.0921E+05 -1.4696E+03   1.1068E+05  0.000E+00  0.000E+00  0.000E+00  4.31645E+01  1.531E-01  2.000E+01  2.000E+04 -7.348E-02
   1   15   13     1    13    1.1068E+05 -1.6841E+03   1.1237E+05  0.000E+00  0.000E+00  0.000E+00  4.26885E+01  1.544E-01  2.000E+01  2.000E+04 -8.421E-02
   1   14   14     1    14    1.1237E+05 -2.0739E+03   1.1444E+05  0.000E+00  0.000E+00  0.000E+00  4.22128E+01  1.560E-01  2.000E+01  2.000E+04 -1.037E-01
   1   13   15     1    15    1.1444E+05 -2.4033E+03   1.1684E+05  0.000E+00  0.000E+00  0.000E+00  4.17374E+01  1.578E-01  2.000E+01  2.000E+04 -1.202E-01
   1   12   16     1    16    1.1684E+05 -2.8727E+03   1.1972E+05  0.000E+00  0.000E+00  0.000E+00  4.12623E+01  1.600E-01  2.000E+01  2.000E+04 -1.436E-01
   1   12   17     1    17    1.1972E+05 -1.5526E+03   1.2127E+05  0.000E+00  0.000E+00  0.000E+00  4.07868E+01  1.618E-01  2.000E+01  2.000E+04 -7.763E-02
   1   12   18     1    18    1.2127E+05 -1.1501E+03   1.2242E+05  0.000E+00  0.000E+00  0.000E+00  4.03106E+01  1.629E-01  2.000E+01  2.000E+04 -5.751E-02
   1   12   19     1    19    1.2242E+05 -6.5652E+02   1.2307E+05  0.000E+00  0.000E+00  0.000E+00  3.98340E+01  1.636E-01  2.000E+01  2.000E+04 -3.283E-02
   1   13   20     1    20    1.2307E+05 -6.5748E+02   1.2373E+05  0.000E+00  0.000E+00  0.000E+00  3.93573E+01  1.641E-01  2.000E+01  2.000E+04 -3.287E-02
   1   14   21     1    21    1.2373E+05 -1.0940E+03   1.2483E+05  0.000E+00  0.000E+00  0.000E+00  3.88807E+01  1.648E-01  2.000E+01  2.000E+04 -5.470E-02
   1   14   22     1    22    1.2483E+05  5.0685E+03   1.1976E+05  0.000E+00  0.000E+00  0.000E+00  3.84019E+01  1.632E-01  2.000E+01  2.000E+04  2.534E-01
   1    9   30     2     1    5.0000E+04 -1.8229E+02   5.0182E+04  0.000E+00  0.000E+00  0.000E+00  4.02410E+01  1.160E-01  2.000E+01  2.000E+04 -9.114E-03
   1    9   29     2     2    5.0182E+04 -4.1255E+02   5.0595E+04  0.000E+00  0.000E+00  0.000E+00  3.99914E+01  1.164E-01  2.000E+01  2.000E+04 -2.063E-02
   1    9   28     2     3    5.0595E+04 -4.9891E+02   5.1094E+04  0.000E+00  0.000E+00  0.000E+00  3.97420E+01  1.170E-01  2.000E+01  2.000E+04 -2.495E-02
   1    9   27     2     4    5.1094E+04 -8.2832E+02   5.1922E+04  0.000E+00  0.000E+00  0.000E+00  3.94929E+01  1.179E-01  2.000E+01  2.000E+04 -4.142E-02
   1   10   26     2     5    5.1922E+04 -2.8139E+02   5.2203E+04  0.000E+00  0.000E+00  0.000E+00  3.92437E+01  1.187E-01  2.000E+01  2.000E+04 -1.407E-02
   1   11   25     2     6    5.2203E+04 -8.7284E+01   5.2291E+04  0.000E+00  0.000E+00  0.000E+00  3.89940E+01  1.190E-01  2.000E+01  2.000E+04 -4.364E-03
   1   12   24     2     7    5.2291E+04 -8.2541E+01   5.2373E+04  0.000E+00  0.000E+00  0.000E+00  3.87441E+01  1.191E-01  2.000E+01  2.000E+04 -4.127E-03
   1   13   23     2     8    5.2373E+04 -3.8330E+01   5.2412E+04  0.000E+00  0.000E+00  0.000E+00  3.84942E+01  1.192E-01  2.000E+01  2.000E+04 -1.916E-03
   1   14   22     2     9    5.2412E+04  1.8893E+03   5.0522E+04  0.000E+00  0.000E+00  0.000E+00  3.82429E+01  1.179E-01  2.000E+01  2.000E+04  9.447E-02
   1   14   22     3     1    1.7028E+05 -8.5043E+03   1.7878E+05  0.000E+00  0.000E+00  0.000E+00  3.77232E+01  1.677E-01  2.000E+01  2.000E+04 -4.252E-01
   1   15   23     3     2    1.7878E+05 -5.3493E+02   1.7932E+05  0.000E+00  0.000E+00  0.000E+00  3.68369E+01  1.702E-01  2.000E+01  2.000E+04 -2.675E-02
   1   15   24     3     3    1.7932E+05 -3.1381E+02   1.7963E+05  0.000E+00  0.000E+00  0.000E+00  3.59483E+01  1.705E-01  2.000E+01  2.000E+04 -1.569E-02
   1   15   25     3     4    1.7963E+05 -3.1369E+02   1.7995E+05  0.000E+00  0.000E+00  0.000E+00  3.50596E+01  1.707E-01  2.000E+01  2.000E+04 -1.568E-02
   1   15   26     3     5    1.7995E+05 -3.6796E+02   1.8031E+05  0.000E+00  0.000E+00  0.000E+00  3.41709E+01  1.709E-01  2.000E+01  2.000E+04 -1.840E-02
   1   16   27     3     6    1.8031E+05 -4.1503E+02   1.8073E+05  0.000E+00  0.000E+00  0.000E+00  3.32822E+01  1.711E-01  2.000E+01  2.000E+04 -2.075E-02
   1   17   28     3     7    1.8073E+05 -1.6899E+03   1.8242E+05  0.000E+00  0.000E+00  0.000E+00  3.23939E+01  1.717E-01  2.000E+01  2.000E+04 -8.449E-02
   1   18   29     3     8    1.8242E+05 -3.1085E+03   1.8553E+05  0.000E+00  0.000E+00  0.000E+00  3.15064E+01  1.730E-01  2.000E+01  2.000E+04 -1.554E-01
   1   18   30     3     9    1.8553E+05 -3.3144E+03   1.8884E+05  0.000E+00  0.000E+00  0.000E+00  3.06193E+01  1.748E-01  2.000E+01  2.000E+04 -1.657E-01



1
              HEAD IN LAYER   1 AT END OF TIME STEP   1 IN STRESS PERIOD    4
  ---------------------------------------------------------------------------

          1      2      3      4      5      6      7      8      9     10
         11     12     13     14     15     16     17     18     19     20
         21     22     23     24     25     26     27     28     29     30
 .........................................................................
   1  ****** ****** ****** ****** ****** ****** ****** ****** ****** ******
      ****** ****** ****** ****** ****** ****** ****** ****** ****** ******
      ****** ****** ****** ****** ****** ****** ****** ****** ****** ******
   2  ****** ****** ****** ****** ****** ****** ****** ****** ****** ******
      ****** ****** ****** ****** ****** ****** ****** ****** ****** ******
      ****** ****** ****** ****** ****** ****** ****** ****** ****** ******
   3  ****** ****** ****** ****** ****** ****** ****** ****** ****** ******
      ****** ****** ****** ****** ****** ****** ****** ****** ****** ******
      ****** ****** ****** ****** ****** ****** ****** ****** ****** ******
   4  ****** ****** ****** ****** ****** ****** ****** ****** ****** ******
      ****** ****** ****** ****** ****** ****** ****** ****** ****** ******
      ****** ****** ****** ****** ****** ****** ****** ****** ****** ******
   5  ****** ****** ****** ****** ****** ****** ****** ****** ****** ******
      ****** ****** ****** ****** ****** ****** ****** ****** ****** ******
      ****** ****** ****** ****** ****** ****** ****** ****** ****** ******
   6  ****** ****** ****** ****** ****** ****** ****** ****** ****** ******
      ****** ****** ****** ****** ****** ****** ****** ****** ****** ******
      ****** ****** ****** ****** ****** ****** ****** ****** ****** ******
   7  ****** ****** ****** ****** ****** ****** ****** ****** ****** ******
      ****** ****** ****** ****** ****** ****** ****** ****** ****** ******
      ****** ****** ****** ****** ****** ****** ****** ****** ****** ******
   8  ****** ****** ****** ****** ****** ****** ****** ****** ****** ******
      ****** ****** ****** ****** ****** ****** ****** ****** ****** ******
      ****** ****** ****** ****** ****** ****** ****** ****** ****** ******
   9  ****** ****** ****** ****** ****** ****** ****** ****** ****** ******
      ****** ****** ****** ****** ****** ****** ****** ****** ****** ******
      ****** ****** ****** ****** ****** ****** ****** ****** ****** ******
  10  ****** ****** ****** ****** ****** ****** ****** ****** ****** ******
      ****** ****** ****** ****** ****** ****** ****** ****** ****** ******
      ****** ****** ****** ****** ****** ****** ****** ****** ****** ******
  11  ****** ****** ****** ****** ****** ****** ****** ****** ****** ******
      ****** ****** ****** ****** ****** ****** ****** ****** ****** ******
      ****** ****** ****** ****** ****** ****** ****** ****** ****** ******
  12  ****** ****** ****** ****** ****** ****** ****** ****** ****** ******
      ****** ****** ****** ****** ****** ****** ****** ****** ****** ******
      ****** ****** ****** ****** ****** ****** ****** ****** ****** ******
  13  ****** ****** ****** ****** ****** ****** ****** ****** ****** ******
      ****** ****** ****** ****** ****** ****** ****** ****** ****** ******
      ****** ****** ****** ****** ****** ****** ****** ****** ****** ******
  14  ****** ****** ****** ****** ****** ****** ****** ****** ****** ******
      ****** ****** ****** ****** ****** ****** ****** ****** ****** ******
      ****** ****** ****** ****** ****** ****** ****** ****** ****** ******
  15  ****** ****** ****** ****** ****** ****** ****** ****** ****** ******
      ****** ****** ****** ****** ****** ****** ****** ****** ****** ******
      ****** ****** ****** ****** ****** ****** ****** ****** ****** ******
  16  ****** ****** ****** ****** ****** ****** ****** ****** ****** ******
      ****** ****** ****** ****** ****** ****** ****** ****** ****** ******
      ****** ****** ****** ****** ****** ****** ****** ****** ****** ******
  17  ****** ****** ****** ****** ****** ****** ****** ****** ****** ******
      ****** ****** ****** ****** ****** ****** ****** ****** ****** ******
      ****** ****** ****** ****** ****** ****** ****** ****** ****** ******
  18  ****** ****** ****** ****** ****** ****** ****** ****** ****** ******
      ****** ****** ****** ****** ****** ****** ****** ****** ****** ******
      ****** ****** ****** ****** ****** ****** ****** ****** ****** ******
  19  ****** ****** ****** ****** ****** ****** ****** ****** ****** ******
      ****** ****** ****** ****** ****** ****** ****** ****** ****** ******
      ****** ****** ****** ****** ****** ****** ****** ****** ****** ******
  20  ****** ****** ****** ****** ****** ****** ****** ****** ****** ******
      ****** ****** ****** ****** ****** ****** ****** ****** ****** ******
      ****** ****** ****** ****** ****** ****** ****** ****** ****** ******
  21  ****** ****** ****** ****** ****** ****** ****** ****** ****** ******
      ****** ****** ****** ****** ****** ****** ****** ****** ****** ******
      ****** ****** ****** ****** ****** ****** ****** ****** ****** ******
  22  ****** ****** ****** ****** ****** ****** ****** ****** ****** ******
      ****** ****** ****** ****** ****** ****** ****** ****** ****** ******
      ****** ****** ****** ****** ****** ****** ****** ****** ****** ******
  23  ****** ****** ****** ****** ****** ****** ****** ****** ****** ******
      ****** ****** ****** ****** ****** ****** ****** ****** ****** ******
      ****** ****** ****** ****** ****** ****** ****** ****** ****** ******
  24  ****** ****** ****** ****** ****** ****** ****** ****** ****** ******
      ****** ****** ****** ****** ****** ****** ****** ****** ****** ******
      ****** ****** ****** ****** ****** ****** ****** ****** ****** ******
  25  ****** ****** ****** ****** ****** ****** ****** ****** ****** ******
      ****** ****** ****** ****** ****** ****** ****** ****** ****** ******
      ****** ****** ****** ****** ****** ****** ****** ****** ****** ******

 HEAD WILL BE SAVED ON UNIT   51 AT END OF TIME STEP    1, STRESS PERIOD    4
1
  VOLUMETRIC BUDGET FOR ENTIRE MODEL AT END OF TIME STEP    1, STRESS PERIOD   4
  ------------------------------------------------------------------------------

     CUMULATIVE VOLUMES      L**3       RATES FOR THIS TIME STEP      L**3/T
     ------------------                 ------------------------

           IN:                                      IN:
           ---                                      ---
             STORAGE =    30674689.2533               STORAGE =       19705.9451
       CONSTANT HEAD =     8302002.5841         CONSTANT HEAD =       30764.9137
               WELLS =           0.0000                 WELLS =           0.0000
            RECHARGE =     8804400.0000              RECHARGE =       27600.0000
      STREAM LEAKAGE =     2176138.6010        STREAM LEAKAGE =        6987.2184

            TOTAL IN =    49957230.4385              TOTAL IN =       85058.0772

          OUT:                                     OUT:
          ----                                     ----
             STORAGE =        1104.0633               STORAGE =          12.1326
       CONSTANT HEAD =           0.0000         CONSTANT HEAD =           0.0000
               WELLS =    14314132.6200                 WELLS =       39216.8017
            RECHARGE =           0.0000              RECHARGE =           0.0000
      STREAM LEAKAGE =    35641995.8933        STREAM LEAKAGE =       45829.1439

           TOTAL OUT =    49957232.5766             TOTAL OUT =       85058.0781

            IN - OUT =          -2.1382              IN - OUT =      -9.6019E-04

 PERCENT DISCREPANCY =          -0.00     PERCENT DISCREPANCY =          -0.00






         TIME SUMMARY AT END OF TIME STEP    1 IN STRESS PERIOD    4
                    SECONDS     MINUTES      HOURS       DAYS        YEARS
                    -----------------------------------------------------------
   TIME STEP LENGTH 7.86240E+06 1.31040E+05  2184.0      91.000     0.24914    
 STRESS PERIOD TIME 7.86240E+06 1.31040E+05  2184.0      91.000     0.24914    
         TOTAL TIME 3.15360E+07 5.25600E+05  8760.0      365.00     0.99932    
1
1
                            STRESS PERIOD NO.    5, LENGTH =   92.00000    
                            -----------------------------------------------

                              NUMBER OF TIME STEPS =     1

                               MULTIPLIER FOR DELT =     1.500

                            INITIAL TIME STEP SIZE =   92.00000    

 WELL NO.  LAYER   ROW   COL   STRESS RATE         
 --------------------------------------------------
      1      1      9     21     -0.1443E+05
      2      1      5     25      -7885.    
      3      1     22     18      -7019.    
      4      1     19      6      -9882.    

      4 WELLS

                 RECHARGE =  5.000000E-04

 REUSING STREAM SEGMENT DATA FROM LAST STRESS PERIOD
 
 SOLVING FOR HEAD 


     7 CALLS TO PCG ROUTINE FOR TIME STEP   1 IN STRESS PERIOD    5
    26 TOTAL ITERATIONS

 OUTPUT CONTROL FOR STRESS PERIOD    5   TIME STEP    1
    SAVE BUDGET
    SAVE HEAD FOR ALL LAYERS
    PRINT HEAD FOR ALL LAYERS
 UBDSV2 SAVING "STREAMFLOW OUT  " ON UNIT  50 AT TIME STEP  1, STRESS PERIOD   5



 STREAM LISTING     PERIOD      5   STEP        1

 LAYER ROW COL. STREAM  RCH.  FLOW INTO     FLOW TO   FLOW OUT OF   OVRLND.     DIRECT     STREAM       STREAM     STREAM     STREAM   STREAMBED  STREAMBED
                SEG.NO.  NO.  STRM. RCH.    AQUIFER    STRM. RCH.    RUNOFF     PRECIP       ET          HEAD       DEPTH      WIDTH   CONDCTNC.   GRADIENT

   1   13    1     1     1    1.0000E+05 -1.7690E+03   1.0177E+05  0.000E+00  0.000E+00  0.000E+00  4.84068E+01  1.454E-01  2.000E+01  2.000E+04 -8.845E-02
   1   13    2     1     2    1.0177E+05 -2.8015E+03   1.0457E+05  0.000E+00  0.000E+00  0.000E+00  4.79315E+01  1.474E-01  2.000E+01  2.000E+04 -1.401E-01
   1   14    3     1     3    1.0457E+05 -3.8781E+02   1.0496E+05  0.000E+00  0.000E+00  0.000E+00  4.74556E+01  1.487E-01  2.000E+01  2.000E+04 -1.939E-02
   1   15    4     1     4    1.0496E+05 -2.6380E+02   1.0522E+05  0.000E+00  0.000E+00  0.000E+00  4.69786E+01  1.490E-01  2.000E+01  2.000E+04 -1.319E-02
   1   16    5     1     5    1.0522E+05  3.5782E+02   1.0486E+05  0.000E+00  0.000E+00  0.000E+00  4.65013E+01  1.490E-01  2.000E+01  2.000E+04  1.789E-02
   1   16    6     1     6    1.0486E+05  3.0172E+02   1.0456E+05  0.000E+00  0.000E+00  0.000E+00  4.60237E+01  1.487E-01  2.000E+01  2.000E+04  1.509E-02
   1   16    7     1     7    1.0456E+05  7.5957E+01   1.0449E+05  0.000E+00  0.000E+00  0.000E+00  4.55463E+01  1.485E-01  2.000E+01  2.000E+04  3.798E-03
   1   16    8     1     8    1.0449E+05 -1.7911E+02   1.0467E+05  0.000E+00  0.000E+00  0.000E+00  4.50690E+01  1.486E-01  2.000E+01  2.000E+04 -8.956E-03
   1   16    9     1     9    1.0467E+05 -3.6668E+02   1.0503E+05  0.000E+00  0.000E+00  0.000E+00  4.45920E+01  1.488E-01  2.000E+01  2.000E+04 -1.833E-02
   1   16   10     1    10    1.0503E+05 -4.7506E+02   1.0551E+05  0.000E+00  0.000E+00  0.000E+00  4.41151E+01  1.492E-01  2.000E+01  2.000E+04 -2.375E-02
   1   16   11     1    11    1.0551E+05 -5.2763E+02   1.0604E+05  0.000E+00  0.000E+00  0.000E+00  4.36382E+01  1.496E-01  2.000E+01  2.000E+04 -2.638E-02
   1   16   12     1    12    1.0604E+05 -1.0259E+03   1.0706E+05  0.000E+00  0.000E+00  0.000E+00  4.31616E+01  1.503E-01  2.000E+01  2.000E+04 -5.130E-02
   1   15   13     1    13    1.0706E+05 -1.2261E+03   1.0829E+05  0.000E+00  0.000E+00  0.000E+00  4.26853E+01  1.512E-01  2.000E+01  2.000E+04 -6.130E-02
   1   14   14     1    14    1.0829E+05 -1.5902E+03   1.0988E+05  0.000E+00  0.000E+00  0.000E+00  4.22092E+01  1.524E-01  2.000E+01  2.000E+04 -7.951E-02
   1   13   15     1    15    1.0988E+05 -1.9026E+03   1.1178E+05  0.000E+00  0.000E+00  0.000E+00  4.17334E+01  1.539E-01  2.000E+01  2.000E+04 -9.513E-02
   1   12   16     1    16    1.1178E+05 -2.3231E+03   1.1410E+05  0.000E+00  0.000E+00  0.000E+00  4.12579E+01  1.556E-01  2.000E+01  2.000E+04 -1.162E-01
   1   12   17     1    17    1.1410E+05 -1.1806E+03   1.1528E+05  0.000E+00  0.000E+00  0.000E+00  4.07821E+01  1.571E-01  2.000E+01  2.000E+04 -5.903E-02
   1   12   18     1    18    1.1528E+05 -7.9440E+02   1.1608E+05  0.000E+00  0.000E+00  0.000E+00  4.03056E+01  1.579E-01  2.000E+01  2.000E+04 -3.972E-02
   1   12   19     1    19    1.1608E+05 -2.2268E+02   1.1630E+05  0.000E+00  0.000E+00  0.000E+00  3.98287E+01  1.583E-01  2.000E+01  2.000E+04 -1.113E-02
   1   13   20     1    20    1.1630E+05 -2.8062E+02   1.1658E+05  0.000E+00  0.000E+00  0.000E+00  3.93517E+01  1.585E-01  2.000E+01  2.000E+04 -1.403E-02
   1   14   21     1    21    1.1658E+05 -6.9168E+02   1.1727E+05  0.000E+00  0.000E+00  0.000E+00  3.88748E+01  1.589E-01  2.000E+01  2.000E+04 -3.458E-02
   1   14   22     1    22    1.1727E+05  5.1525E+03   1.1212E+05  0.000E+00  0.000E+00  0.000E+00  3.83957E+01  1.571E-01  2.000E+01  2.000E+04  2.576E-01
[...]
  19  ****** ****** ****** ****** ****** ****** ****** ****** ****** ******
      ****** ****** ****** ****** ****** ****** ****** ****** ****** ******
      ****** ****** ****** ****** ****** ****** ****** ****** ****** ******
  20  ****** ****** ****** ****** ****** ****** ****** ****** ****** ******
      ****** ****** ****** ****** ****** ****** ****** ****** ****** ******
      ****** ****** ****** ****** ****** ****** ****** ****** ****** ******
  21  ****** ****** ****** ****** ****** ****** ****** ****** ****** ******
      ****** ****** ****** ****** ****** ****** ****** ****** ****** ******
      ****** ****** ****** ****** ****** ****** ****** ****** ****** ******
  22  ****** ****** ****** ****** ****** ****** ****** ****** ****** ******
      ****** ****** ****** ****** ****** ****** ****** ****** ****** ******
      ****** ****** ****** ****** ****** ****** ****** ****** ****** ******
  23  ****** ****** ****** ****** ****** ****** ****** ****** ****** ******
      ****** ****** ****** ****** ****** ****** ****** ****** ****** ******
      ****** ****** ****** ****** ****** ****** ****** ****** ****** ******
  24  ****** ****** ****** ****** ****** ****** ****** ****** ****** ******
      ****** ****** ****** ****** ****** ****** ****** ****** ****** ******
      ****** ****** ****** ****** ****** ****** ****** ****** ****** ******
  25  ****** ****** ****** ****** ****** ****** ****** ****** ****** ******
      ****** ****** ****** ****** ****** ****** ****** ****** ****** ******
      ****** ****** ****** ****** ****** ****** ****** ****** ****** ******

 HEAD WILL BE SAVED ON UNIT   51 AT END OF TIME STEP    1, STRESS PERIOD   11
1
  VOLUMETRIC BUDGET FOR ENTIRE MODEL AT END OF TIME STEP    1, STRESS PERIOD  11
  ------------------------------------------------------------------------------

     CUMULATIVE VOLUMES      L**3       RATES FOR THIS TIME STEP      L**3/T
     ------------------                 ------------------------

           IN:                                      IN:
           ---                                      ---
             STORAGE =    36905470.0542               STORAGE =       17949.6653
       CONSTANT HEAD =    30712546.1899         CONSTANT HEAD =       37209.4661
               WELLS =           0.0000                 WELLS =           0.0000
            RECHARGE =    23901600.0000              RECHARGE =           0.0000
      STREAM LEAKAGE =     7979365.6750        STREAM LEAKAGE =       11203.5239

            TOTAL IN =    99498981.9191              TOTAL IN =       66362.6553

          OUT:                                     OUT:
          ----                                     ----
             STORAGE =     2330408.7668               STORAGE =           0.0000
       CONSTANT HEAD =           0.0000         CONSTANT HEAD =           0.0000
               WELLS =    39373668.9054                 WELLS =       39216.8017
            RECHARGE =           0.0000              RECHARGE =           0.0000
      STREAM LEAKAGE =    57794906.3790        STREAM LEAKAGE =       27145.8588

           TOTAL OUT =    99498984.0512             TOTAL OUT =       66362.6605

            IN - OUT =          -2.1321              IN - OUT =      -5.1799E-03

 PERCENT DISCREPANCY =          -0.00     PERCENT DISCREPANCY =          -0.00






         TIME SUMMARY AT END OF TIME STEP    1 IN STRESS PERIOD   11
                    SECONDS     MINUTES      HOURS       DAYS        YEARS
                    -----------------------------------------------------------
   TIME STEP LENGTH 7.86240E+06 1.31040E+05  2184.0      91.000     0.24914    
 STRESS PERIOD TIME 7.86240E+06 1.31040E+05  2184.0      91.000     0.24914    
         TOTAL TIME 8.67456E+07 1.44576E+06  24096.      1004.0      2.7488    
1
1
                            STRESS PERIOD NO.   12, LENGTH =   91.00000    
                            -----------------------------------------------

                              NUMBER OF TIME STEPS =     1

                               MULTIPLIER FOR DELT =     1.500

                            INITIAL TIME STEP SIZE =   91.00000    

 WELL NO.  LAYER   ROW   COL   STRESS RATE         
 --------------------------------------------------
      1      1      9     21     -0.1443E+05
      2      1      5     25      -7885.    
      3      1     22     18      -7019.    
      4      1     19      6      -9882.    

      4 WELLS

                 RECHARGE =  1.000000E-03

 REUSING STREAM SEGMENT DATA FROM LAST STRESS PERIOD
 
 SOLVING FOR HEAD 


     6 CALLS TO PCG ROUTINE FOR TIME STEP   1 IN STRESS PERIOD   12
    23 TOTAL ITERATIONS

 OUTPUT CONTROL FOR STRESS PERIOD   12   TIME STEP    1
    SAVE BUDGET
    SAVE HEAD FOR ALL LAYERS
    PRINT HEAD FOR ALL LAYERS
 UBDSV2 SAVING "STREAMFLOW OUT  " ON UNIT  50 AT TIME STEP  1, STRESS PERIOD  12



 STREAM LISTING     PERIOD     12   STEP        1

 LAYER ROW COL. STREAM  RCH.  FLOW INTO     FLOW TO   FLOW OUT OF   OVRLND.     DIRECT     STREAM       STREAM     STREAM     STREAM   STREAMBED  STREAMBED
                SEG.NO.  NO.  STRM. RCH.    AQUIFER    STRM. RCH.    RUNOFF     PRECIP       ET          HEAD       DEPTH      WIDTH   CONDCTNC.   GRADIENT

   1   13    1     1     1    1.0000E+05 -1.2940E+03   1.0129E+05  0.000E+00  0.000E+00  0.000E+00  4.84066E+01  1.452E-01  2.000E+01  2.000E+04 -6.470E-02
   1   13    2     1     2    1.0129E+05 -2.2447E+03   1.0354E+05  0.000E+00  0.000E+00  0.000E+00  4.79308E+01  1.467E-01  2.000E+01  2.000E+04 -1.122E-01
   1   14    3     1     3    1.0354E+05 -3.1465E+02   1.0385E+05  0.000E+00  0.000E+00  0.000E+00  4.74547E+01  1.478E-01  2.000E+01  2.000E+04 -1.573E-02
   1   15    4     1     4    1.0385E+05 -1.9893E+02   1.0405E+05  0.000E+00  0.000E+00  0.000E+00  4.69776E+01  1.481E-01  2.000E+01  2.000E+04 -9.946E-03
   1   16    5     1     5    1.0405E+05  5.3243E+02   1.0352E+05  0.000E+00  0.000E+00  0.000E+00  4.65002E+01  1.479E-01  2.000E+01  2.000E+04  2.662E-02
   1   16    6     1     6    1.0352E+05  4.1837E+02   1.0310E+05  0.000E+00  0.000E+00  0.000E+00  4.60225E+01  1.475E-01  2.000E+01  2.000E+04  2.092E-02
   1   16    7     1     7    1.0310E+05  1.9382E+02   1.0291E+05  0.000E+00  0.000E+00  0.000E+00  4.55450E+01  1.472E-01  2.000E+01  2.000E+04  9.691E-03
   1   16    8     1     8    1.0291E+05 -6.3247E+01   1.0297E+05  0.000E+00  0.000E+00  0.000E+00  4.50676E+01  1.472E-01  2.000E+01  2.000E+04 -3.162E-03
   1   16    9     1     9    1.0297E+05 -2.5773E+02   1.0323E+05  0.000E+00  0.000E+00  0.000E+00  4.45905E+01  1.473E-01  2.000E+01  2.000E+04 -1.289E-02
   1   16   10     1    10    1.0323E+05 -3.7718E+02   1.0361E+05  0.000E+00  0.000E+00  0.000E+00  4.41135E+01  1.476E-01  2.000E+01  2.000E+04 -1.886E-02
   1   16   11     1    11    1.0361E+05 -4.3882E+02   1.0404E+05  0.000E+00  0.000E+00  0.000E+00  4.36366E+01  1.479E-01  2.000E+01  2.000E+04 -2.194E-02
   1   16   12     1    12    1.0404E+05 -8.2591E+02   1.0487E+05  0.000E+00  0.000E+00  0.000E+00  4.31599E+01  1.485E-01  2.000E+01  2.000E+04 -4.130E-02
   1   15   13     1    13    1.0487E+05 -9.6551E+02   1.0584E+05  0.000E+00  0.000E+00  0.000E+00  4.26833E+01  1.492E-01  2.000E+01  2.000E+04 -4.828E-02
   1   14   14     1    14    1.0584E+05 -1.2678E+03   1.0710E+05  0.000E+00  0.000E+00  0.000E+00  4.22070E+01  1.502E-01  2.000E+01  2.000E+04 -6.339E-02
   1   13   15     1    15    1.0710E+05 -1.5285E+03   1.0863E+05  0.000E+00  0.000E+00  0.000E+00  4.17309E+01  1.514E-01  2.000E+01  2.000E+04 -7.643E-02
   1   12   16     1    16    1.0863E+05 -1.8358E+03   1.1047E+05  0.000E+00  0.000E+00  0.000E+00  4.12551E+01  1.528E-01  2.000E+01  2.000E+04 -9.179E-02
   1   12   17     1    17    1.1047E+05 -9.2184E+02   1.1139E+05  0.000E+00  0.000E+00  0.000E+00  4.07789E+01  1.539E-01  2.000E+01  2.000E+04 -4.609E-02
   1   12   18     1    18    1.1139E+05 -5.7301E+02   1.1196E+05  0.000E+00  0.000E+00  0.000E+00  4.03023E+01  1.546E-01  2.000E+01  2.000E+04 -2.865E-02
   1   12   19     1    19    1.1196E+05  3.1836E+01   1.1193E+05  0.000E+00  0.000E+00  0.000E+00  3.98252E+01  1.548E-01  2.000E+01  2.000E+04  1.592E-03
   1   13   20     1    20    1.1193E+05 -1.3758E+02   1.1207E+05  0.000E+00  0.000E+00  0.000E+00  3.93480E+01  1.548E-01  2.000E+01  2.000E+04 -6.879E-03
   1   14   21     1    21    1.1207E+05 -5.2900E+02   1.1260E+05  0.000E+00  0.000E+00  0.000E+00  3.88710E+01  1.551E-01  2.000E+01  2.000E+04 -2.645E-02
   1   14   22     1    22    1.1260E+05  5.1641E+03   1.0743E+05  0.000E+00  0.000E+00  0.000E+00  3.83918E+01  1.532E-01  2.000E+01  2.000E+04  2.582E-01
   1    9   30     2     1    5.0000E+04  8.7393E+01   4.9913E+04  0.000E+00  0.000E+00  0.000E+00  4.02408E+01  1.158E-01  2.000E+01  2.000E+04  4.370E-03
   1    9   29     2     2    4.9913E+04 -1.3131E+02   5.0044E+04  0.000E+00  0.000E+00  0.000E+00  3.99908E+01  1.158E-01  2.000E+01  2.000E+04 -6.566E-03
   1    9   28     2     3    5.0044E+04 -1.8481E+02   5.0229E+04  0.000E+00  0.000E+00  0.000E+00  3.97411E+01  1.161E-01  2.000E+01  2.000E+04 -9.240E-03
   1    9   27     2     4    5.0229E+04 -2.4891E+02   5.0478E+04  0.000E+00  0.000E+00  0.000E+00  3.94914E+01  1.164E-01  2.000E+01  2.000E+04 -1.245E-02
   1   10   26     2     5    5.0478E+04  1.7111E+02   5.0307E+04  0.000E+00  0.000E+00  0.000E+00  3.92414E+01  1.164E-01  2.000E+01  2.000E+04  8.556E-03
   1   11   25     2     6    5.0307E+04  3.1398E+02   4.9993E+04  0.000E+00  0.000E+00  0.000E+00  3.89911E+01  1.161E-01  2.000E+01  2.000E+04  1.570E-02
   1   12   24     2     7    4.9993E+04  2.9181E+02   4.9701E+04  0.000E+00  0.000E+00  0.000E+00  3.87407E+01  1.157E-01  2.000E+01  2.000E+04  1.459E-02
   1   13   23     2     8    4.9701E+04  2.1223E+01   4.9680E+04  0.000E+00  0.000E+00  0.000E+00  3.84904E+01  1.154E-01  2.000E+01  2.000E+04  1.061E-03
   1   14   22     2     9    4.9680E+04  2.1067E+03   4.7573E+04  0.000E+00  0.000E+00  0.000E+00  3.82389E+01  1.139E-01  2.000E+01  2.000E+04  1.053E-01
   1   14   22     3     1    1.5501E+05 -8.3878E+03   1.6339E+05  0.000E+00  0.000E+00  0.000E+00  3.77142E+01  1.587E-01  2.000E+01  2.000E+04 -4.194E-01
   1   15   23     3     2    1.6339E+05 -4.1194E+02   1.6381E+05  0.000E+00  0.000E+00  0.000E+00  3.68279E+01  1.613E-01  2.000E+01  2.000E+04 -2.060E-02
   1   15   24     3     3    1.6381E+05 -2.4021E+02   1.6405E+05  0.000E+00  0.000E+00  0.000E+00  3.59392E+01  1.615E-01  2.000E+01  2.000E+04 -1.201E-02
   1   15   25     3     4    1.6405E+05 -2.4532E+02   1.6429E+05  0.000E+00  0.000E+00  0.000E+00  3.50505E+01  1.616E-01  2.000E+01  2.000E+04 -1.227E-02
   1   15   26     3     5    1.6429E+05 -3.1480E+02   1.6461E+05  0.000E+00  0.000E+00  0.000E+00  3.41618E+01  1.618E-01  2.000E+01  2.000E+04 -1.574E-02
   1   16   27     3     6    1.6461E+05 -3.3207E+02   1.6494E+05  0.000E+00  0.000E+00  0.000E+00  3.32731E+01  1.620E-01  2.000E+01  2.000E+04 -1.660E-02
   1   17   28     3     7    1.6494E+05 -1.4090E+03   1.6635E+05  0.000E+00  0.000E+00  0.000E+00  3.23847E+01  1.625E-01  2.000E+01  2.000E+04 -7.045E-02
   1   18   29     3     8    1.6635E+05 -2.5725E+03   1.6892E+05  0.000E+00  0.000E+00  0.000E+00  3.14970E+01  1.637E-01  2.000E+01  2.000E+04 -1.286E-01
   1   18   30     3     9    1.6892E+05 -2.9823E+03   1.7190E+05  0.000E+00  0.000E+00  0.000E+00  3.06097E+01  1.653E-01  2.000E+01  2.000E+04 -1.491E-01



1
              HEAD IN LAYER   1 AT END OF TIME STEP   1 IN STRESS PERIOD   12
  ---------------------------------------------------------------------------

          1      2      3      4      5      6      7      8      9     10
         11     12     13     14     15     16     17     18     19     20
         21     22     23     24     25     26     27     28     29     30
 .........................................................................
   1  ****** ****** ****** ****** ****** ****** ****** ****** ****** ******
      ****** ****** ****** ****** ****** ****** ****** ****** ****** ******
      ****** ****** ****** ****** ****** ****** ****** ****** ****** ******
   2  ****** ****** ****** ****** ****** ****** ****** ****** ****** ******
      ****** ****** ****** ****** ****** ****** ****** ****** ****** ******
      ****** ****** ****** ****** ****** ****** ****** ****** ****** ******
   3  ****** ****** ****** ****** ****** ****** ****** ****** ****** ******
      ****** ****** ****** ****** ****** ****** ****** ****** ****** ******
      ****** ****** ****** ****** ****** ****** ****** ****** ****** ******
   4  ****** ****** ****** ****** ****** ****** ****** ****** ****** ******
      ****** ****** ****** ****** ****** ****** ****** ****** ****** ******
      ****** ****** ****** ****** ****** ****** ****** ****** ****** ******
   5  ****** ****** ****** ****** ****** ****** ****** ****** ****** ******
      ****** ****** ****** ****** ****** ****** ****** ****** ****** ******
      ****** ****** ****** ****** ****** ****** ****** ****** ****** ******
   6  ****** ****** ****** ****** ****** ****** ****** ****** ****** ******
      ****** ****** ****** ****** ****** ****** ****** ****** ****** ******
      ****** ****** ****** ****** ****** ****** ****** ****** ****** ******
   7  ****** ****** ****** ****** ****** ****** ****** ****** ****** ******
      ****** ****** ****** ****** ****** ****** ****** ****** ****** ******
      ****** ****** ****** ****** ****** ****** ****** ****** ****** ******
   8  ****** ****** ****** ****** ****** ****** ****** ****** ****** ******
      ****** ****** ****** ****** ****** ****** ****** ****** ****** ******
      ****** ****** ****** ****** ****** ****** ****** ****** ****** ******
   9  ****** ****** ****** ****** ****** ****** ****** ****** ****** ******
      ****** ****** ****** ****** ****** ****** ****** ****** ****** ******
      ****** ****** ****** ****** ****** ****** ****** ****** ****** ******
  10  ****** ****** ****** ****** ****** ****** ****** ****** ****** ******
      ****** ****** ****** ****** ****** ****** ****** ****** ****** ******
      ****** ****** ****** ****** ****** ****** ****** ****** ****** ******
  11  ****** ****** ****** ****** ****** ****** ****** ****** ****** ******
      ****** ****** ****** ****** ****** ****** ****** ****** ****** ******
      ****** ****** ****** ****** ****** ****** ****** ****** ****** ******
  12  ****** ****** ****** ****** ****** ****** ****** ****** ****** ******
      ****** ****** ****** ****** ****** ****** ****** ****** ****** ******
      ****** ****** ****** ****** ****** ****** ****** ****** ****** ******
  13  ****** ****** ****** ****** ****** ****** ****** ****** ****** ******
      ****** ****** ****** ****** ****** ****** ****** ****** ****** ******
      ****** ****** ****** ****** ****** ****** ****** ****** ****** ******
  14  ****** ****** ****** ****** ****** ****** ****** ****** ****** ******
      ****** ****** ****** ****** ****** ****** ****** ****** ****** ******
      ****** ****** ****** ****** ****** ****** ****** ****** ****** ******
  15  ****** ****** ****** ****** ****** ****** ****** ****** ****** ******
      ****** ****** ****** ****** ****** ****** ****** ****** ****** ******
      ****** ****** ****** ****** ****** ****** ****** ****** ****** ******
  16  ****** ****** ****** ****** ****** ****** ****** ****** ****** ******
      ****** ****** ****** ****** ****** ****** ****** ****** ****** ******
      ****** ****** ****** ****** ****** ****** ****** ****** ****** ******
  17  ****** ****** ****** ****** ****** ****** ****** ****** ****** ******
      ****** ****** ****** ****** ****** ****** ****** ****** ****** ******
      ****** ****** ****** ****** ****** ****** ****** ****** ****** ******
  18  ****** ****** ****** ****** ****** ****** ****** ****** ****** ******
      ****** ****** ****** ****** ****** ****** ****** ****** ****** ******
      ****** ****** ****** ****** ****** ****** ****** ****** ****** ******
  19  ****** ****** ****** ****** ****** ****** ****** ****** ****** ******
      ****** ****** ****** ****** ****** ****** ****** ****** ****** ******
      ****** ****** ****** ****** ****** ****** ****** ****** ****** ******
  20  ****** ****** ****** ****** ****** ****** ****** ****** ****** ******
      ****** ****** ****** ****** ****** ****** ****** ****** ****** ******
      ****** ****** ****** ****** ****** ****** ****** ****** ****** ******
  21  ****** ****** ****** ****** ****** ****** ****** ****** ****** ******
      ****** ****** ****** ****** ****** ****** ****** ****** ****** ******
      ****** ****** ****** ****** ****** ****** ****** ****** ****** ******
  22  ****** ****** ****** ****** ****** ****** ****** ****** ****** ******
      ****** ****** ****** ****** ****** ****** ****** ****** ****** ******
      ****** ****** ****** ****** ****** ****** ****** ****** ****** ******
  23  ****** ****** ****** ****** ****** ****** ****** ****** ****** ******
      ****** ****** ****** ****** ****** ****** ****** ****** ****** ******
      ****** ****** ****** ****** ****** ****** ****** ****** ****** ******
  24  ****** ****** ****** ****** ****** ****** ****** ****** ****** ******
      ****** ****** ****** ****** ****** ****** ****** ****** ****** ******
      ****** ****** ****** ****** ****** ****** ****** ****** ****** ******
  25  ****** ****** ****** ****** ****** ****** ****** ****** ****** ******
      ****** ****** ****** ****** ****** ****** ****** ****** ****** ******
      ****** ****** ****** ****** ****** ****** ****** ****** ****** ******

 HEAD WILL BE SAVED ON UNIT   51 AT END OF TIME STEP    1, STRESS PERIOD   12
1
  VOLUMETRIC BUDGET FOR ENTIRE MODEL AT END OF TIME STEP    1, STRESS PERIOD  12
  ------------------------------------------------------------------------------

     CUMULATIVE VOLUMES      L**3       RATES FOR THIS TIME STEP      L**3/T
     ------------------                 ------------------------

           IN:                                      IN:
           ---                                      ---
             STORAGE =    36906444.9867               STORAGE =          10.7135
       CONSTANT HEAD =    34035370.7435         CONSTANT HEAD =       36514.5555
               WELLS =           0.0000                 WELLS =           0.0000
            RECHARGE =    26413200.0000              RECHARGE =       27600.0000
      STREAM LEAKAGE =     8828656.8806        STREAM LEAKAGE =        9332.8704

            TOTAL IN =   106183672.6108              TOTAL IN =       73458.1395

          OUT:                                     OUT:
          ----                                     ----
             STORAGE =     2603958.9465               STORAGE =        3006.0459
       CONSTANT HEAD =           0.0000         CONSTANT HEAD =           0.0000
               WELLS =    42942397.8600                 WELLS =       39216.8017
            RECHARGE =           0.0000              RECHARGE =           0.0000
      STREAM LEAKAGE =    60637317.8752        STREAM LEAKAGE =       31235.2912

           TOTAL OUT =   106183674.6817             TOTAL OUT =       73458.1388

            IN - OUT =          -2.0708              IN - OUT =       6.7343E-04

 PERCENT DISCREPANCY =          -0.00     PERCENT DISCREPANCY =           0.00






         TIME SUMMARY AT END OF TIME STEP    1 IN STRESS PERIOD   12
                    SECONDS     MINUTES      HOURS       DAYS        YEARS
                    -----------------------------------------------------------
   TIME STEP LENGTH 7.86240E+06 1.31040E+05  2184.0      91.000     0.24914    
 STRESS PERIOD TIME 7.86240E+06 1.31040E+05  2184.0      91.000     0.24914    
         TOTAL TIME 9.46080E+07 1.57680E+06  26280.      1095.0      2.9979    
1

 Run end date and time (yyyy/mm/dd hh:mm:ss): 2019/06/07 22:53:43
 Elapsed run time:  0.156 Seconds

