                                  MODFLOW-NWT-SWR1 
      U.S. GEOLOGICAL SURVEY MODULAR FINITE-DIFFERENCE GROUNDWATER-FLOW MODEL
                             VERSION 1.1.4 4/01/2018
                    BASED ON MODFLOW-2005 VERSION 1.12.00 02/03/2017

 LIST FILE: .\abr.lst
                         UNIT    7
#                                                                                                                                                                                                                                                                                                           
# Solver                                                                                                                                                                                                                                                                                                    

 OPENING .\abr.nwt
 FILE TYPE:NWT   UNIT   19   STATUS:OLD    
 FORMAT:FORMATTED              ACCESS:SEQUENTIAL          
#                                                                                                                                                                                                                                                                                                           
# Flow Packages                                                                                                                                                                                                                                                                                             

 OPENING .\abr.upw
 FILE TYPE:UPW   UNIT   11   STATUS:OLD    
 FORMAT:FORMATTED              ACCESS:SEQUENTIAL          

 OPENING .\abr.bas
 FILE TYPE:BAS6   UNIT    1   STATUS:OLD    
 FORMAT:FORMATTED              ACCESS:SEQUENTIAL          

 OPENING .\abr.dis
 FILE TYPE:DIS   UNIT   29   STATUS:OLD    
 FORMAT:FORMATTED              ACCESS:SEQUENTIAL          
#                                                                                                                                                                                                                                                                                                           
# Boundary Conditions                                                                                                                                                                                                                                                                                       

 OPENING .\abr.sfr
 FILE TYPE:SFR   UNIT   27   STATUS:OLD    
 FORMAT:FORMATTED              ACCESS:SEQUENTIAL          

 OPENING .\abr.wel
 FILE TYPE:WEL   UNIT   12   STATUS:OLD    
 FORMAT:FORMATTED              ACCESS:SEQUENTIAL          

 OPENING .\abr.drn
 FILE TYPE:DRN   UNIT   13   STATUS:OLD    
 FORMAT:FORMATTED              ACCESS:SEQUENTIAL          

 OPENING .\abr.evt
 FILE TYPE:EVT   UNIT   20   STATUS:OLD    
 FORMAT:FORMATTED              ACCESS:SEQUENTIAL          

 OPENING .\abr.rch
 FILE TYPE:RCH   UNIT   18   STATUS:OLD    
 FORMAT:FORMATTED              ACCESS:SEQUENTIAL          

 OPENING .\abr.chd
 FILE TYPE:CHD   UNIT   16   STATUS:OLD    
 FORMAT:FORMATTED              ACCESS:SEQUENTIAL          
#                                                                                                                                                                                                                                                                                                           
# Starting Heads                                                                                                                                                                                                                                                                                            

 OPENING ..\external_files\abr_strt.hds
 FILE TYPE:DATA(BINARY)   UNIT   14   STATUS:UNKNOWN
 FORMAT:BINARY                 ACCESS:SEQUENTIAL          
#                                                                                                                                                                                                                                                                                                           
# Inflow Tables                                                                                                                                                                                                                                                                                             

 OPENING ..\external_files\ts\in_ElmR.txt
 FILE TYPE:DATA   UNIT  400   STATUS:UNKNOWN
 FORMAT:FORMATTED              ACCESS:SEQUENTIAL          

 OPENING ..\external_files\ts\in_FootCr.txt
 FILE TYPE:DATA   UNIT  401   STATUS:UNKNOWN
 FORMAT:FORMATTED              ACCESS:SEQUENTIAL          
#                                                                                                                                                                                                                                                                                                           
# Property Arrays                                                                                                                                                                                                                                                                                           

 OPENING ..\external_files\props\kx\abr1._kx
 FILE TYPE:DATA   UNIT   73   STATUS:UNKNOWN
 FORMAT:FORMATTED              ACCESS:SEQUENTIAL          

 OPENING ..\external_files\props\kx\abr2._kx
 FILE TYPE:DATA   UNIT   74   STATUS:UNKNOWN
 FORMAT:FORMATTED              ACCESS:SEQUENTIAL          

 OPENING ..\external_files\props\kx\abr3._kx
 FILE TYPE:DATA   UNIT   75   STATUS:UNKNOWN
 FORMAT:FORMATTED              ACCESS:SEQUENTIAL          

 OPENING ..\external_files\props\kx\abr4._kx
 FILE TYPE:DATA   UNIT   76   STATUS:UNKNOWN
 FORMAT:FORMATTED              ACCESS:SEQUENTIAL          

 OPENING ..\external_files\props\kx\abr5._kx
 FILE TYPE:DATA   UNIT   77   STATUS:UNKNOWN
 FORMAT:FORMATTED              ACCESS:SEQUENTIAL          

 OPENING ..\external_files\props\kx\abr6._kx
 FILE TYPE:DATA   UNIT   78   STATUS:UNKNOWN
 FORMAT:FORMATTED              ACCESS:SEQUENTIAL          

 OPENING ..\external_files\props\kx\abr7._kx
 FILE TYPE:DATA   UNIT   79   STATUS:UNKNOWN
 FORMAT:FORMATTED              ACCESS:SEQUENTIAL          

 OPENING ..\external_files\props\kz\abr1._kz
 FILE TYPE:DATA   UNIT   90   STATUS:UNKNOWN
 FORMAT:FORMATTED              ACCESS:SEQUENTIAL          

 OPENING ..\external_files\props\kz\abr2._kz
 FILE TYPE:DATA   UNIT   91   STATUS:UNKNOWN
 FORMAT:FORMATTED              ACCESS:SEQUENTIAL          

 OPENING ..\external_files\props\kz\abr3._kz
 FILE TYPE:DATA   UNIT   92   STATUS:UNKNOWN
 FORMAT:FORMATTED              ACCESS:SEQUENTIAL          

 OPENING ..\external_files\props\kz\abr4._kz
 FILE TYPE:DATA   UNIT   93   STATUS:UNKNOWN
 FORMAT:FORMATTED              ACCESS:SEQUENTIAL          

 OPENING ..\external_files\props\kz\abr5._kz
 FILE TYPE:DATA   UNIT   94   STATUS:UNKNOWN
 FORMAT:FORMATTED              ACCESS:SEQUENTIAL          

 OPENING ..\external_files\props\kz\abr6._kz
 FILE TYPE:DATA   UNIT   95   STATUS:UNKNOWN
 FORMAT:FORMATTED              ACCESS:SEQUENTIAL          

 OPENING ..\external_files\props\kz\abr7._kz
 FILE TYPE:DATA   UNIT   96   STATUS:UNKNOWN
 FORMAT:FORMATTED              ACCESS:SEQUENTIAL          
#                                                                                                                                                                                                                                                                                                           
# Observation Files                                                                                                                                                                                                                                                                                         
#HOB 80 .\abr.hob                                                                                                                                                                                                                                                                                           
#GAGE 97 .\abr.gag                                                                                                                                                                                                                                                                                          
#                                                                                                                                                                                                                                                                                                           
# Output Control and Files                                                                                                                                                                                                                                                                                  

 OPENING .\abr.oc
 FILE TYPE:OC   UNIT   22   STATUS:OLD    
 FORMAT:FORMATTED              ACCESS:SEQUENTIAL          
#DATA 500 ..\..\output\output.tr\abr_HobData.txt                                                                                                                                                                                                                                                            
#DATA 501 ..\..\output\output.tr\abr_well_reductions.txt                                                                                                                                                                                                                                                    

 OPENING .\abr_streamflow.cbc
 FILE TYPE:DATA(BINARY)   UNIT   98   STATUS:UNKNOWN
 FORMAT:BINARY                 ACCESS:SEQUENTIAL          
#DATA 60 ..\..\output\output.tr\abr_gage_str.dat                                                                                                                                                                                                                                                            
#DATA 61 ..\..\output\output.tr\abr_at_6471500.dat                                                                                                                                                                                                                                                          
#DATA 62 ..\..\output\output.tr\abr_atout_ElmR.dat                                                                                                                                                                                                                                                          
#DATA 63 ..\..\output\output.tr\abr_at_6471800.dat                                                                                                                                                                                                                                                          
#DATA 64 ..\..\output\output.tr\abr_atout_MoccCr.dat                                                                                                                                                                                                                                                        

 OPENING .\abr.cbb
 FILE TYPE:DATA(BINARY)   UNIT   50   STATUS:UNKNOWN
 FORMAT:BINARY                 ACCESS:SEQUENTIAL          

 OPENING .\abr_heads.hds
 FILE TYPE:DATA(BINARY)   UNIT   30   STATUS:UNKNOWN
 FORMAT:BINARY                 ACCESS:SEQUENTIAL          

 BAS -- BASIC PACKAGE, VERSION 1.1.4, 4/01/2018 INPUT READ FROM UNIT    1
 
 MODFLOW was compiled using mixed precision
 Precision of REAL variables:           6
 Precision of DOUBLE PRECISION variables:          15

 DISCRETIZATION INPUT DATA READ FROM UNIT   29
 # MODFLOW2000 Discretization File
    7 LAYERS       368 ROWS       410 COLUMNS
    2 STRESS PERIOD(S) IN SIMULATION
 MODEL TIME UNIT IS DAYS
 MODEL LENGTH UNIT IS FEET
  Confining bed flag for each layer:
   0   0   0   0   0   0   0

                     DELR =   200.000    

                     DELC =   200.000    

 OPENING FILE ON UNIT   99:
 ..\external_files\surfs\top1.dat                                                                                                                                                                        



           TOP ELEVATION OF LAYER 1
 READING ON UNIT   99 WITH FORMAT: (FREE)              

 OPENING FILE ON UNIT   99:
 ..\external_files\surfs\bot1.dat                                                                                                                                                                        



             MODEL LAYER BOTTOM EL. FOR LAYER   1
 READING ON UNIT   99 WITH FORMAT: (FREE)              

 OPENING FILE ON UNIT   99:
 ..\external_files\surfs\bot2.dat                                                                                                                                                                        



             MODEL LAYER BOTTOM EL. FOR LAYER   2
 READING ON UNIT   99 WITH FORMAT: (FREE)              

 OPENING FILE ON UNIT   99:
 ..\external_files\surfs\bot3.dat                                                                                                                                                                        



             MODEL LAYER BOTTOM EL. FOR LAYER   3
 READING ON UNIT   99 WITH FORMAT: (FREE)              

 OPENING FILE ON UNIT   99:
 ..\external_files\surfs\bot4.dat                                                                                                                                                                        



             MODEL LAYER BOTTOM EL. FOR LAYER   4
 READING ON UNIT   99 WITH FORMAT: (FREE)              

 OPENING FILE ON UNIT   99:
 ..\external_files\surfs\bot5.dat                                                                                                                                                                        



             MODEL LAYER BOTTOM EL. FOR LAYER   5
 READING ON UNIT   99 WITH FORMAT: (FREE)              

 OPENING FILE ON UNIT   99:
 ..\external_files\surfs\bot6.dat                                                                                                                                                                        



             MODEL LAYER BOTTOM EL. FOR LAYER   6
 READING ON UNIT   99 WITH FORMAT: (FREE)              

 OPENING FILE ON UNIT   99:
 ..\external_files\surfs\bot7.dat                                                                                                                                                                        



             MODEL LAYER BOTTOM EL. FOR LAYER   7
 READING ON UNIT   99 WITH FORMAT: (FREE)              


 STRESS PERIOD     LENGTH       TIME STEPS     MULTIPLIER FOR DELT    SS FLAG
 ----------------------------------------------------------------------------
        1         1.000000          1                    1.000         SS
        2         365.0000         12                    1.000         TR

 COMBINED STEADY-STATE AND TRANSIENT SIMULATION



 
 # MODFLOW-NWT Basic Package                                                     
 # Aberdeen Groundwater Flow Model 2018                                          
 #
 THE FREE FORMAT OPTION HAS BEEN SELECTED

 OPENING FILE ON UNIT   99:
 ..\external_files\ibound\ib1.dat                                                                                                                                                                        



                     BOUNDARY ARRAY FOR LAYER   1
 READING ON UNIT   99 WITH FORMAT: (FREE)              

 OPENING FILE ON UNIT   99:
 ..\external_files\ibound\ib2.dat                                                                                                                                                                        



                     BOUNDARY ARRAY FOR LAYER   2
 READING ON UNIT   99 WITH FORMAT: (FREE)              

 OPENING FILE ON UNIT   99:
 ..\external_files\ibound\ib3.dat                                                                                                                                                                        



                     BOUNDARY ARRAY FOR LAYER   3
 READING ON UNIT   99 WITH FORMAT: (FREE)              

 OPENING FILE ON UNIT   99:
 ..\external_files\ibound\ib4.dat                                                                                                                                                                        



                     BOUNDARY ARRAY FOR LAYER   4
 READING ON UNIT   99 WITH FORMAT: (FREE)              

 OPENING FILE ON UNIT   99:
 ..\external_files\ibound\ib5.dat                                                                                                                                                                        



                     BOUNDARY ARRAY FOR LAYER   5
 READING ON UNIT   99 WITH FORMAT: (FREE)              

 OPENING FILE ON UNIT   99:
 ..\external_files\ibound\ib6.dat                                                                                                                                                                        



                     BOUNDARY ARRAY FOR LAYER   6
 READING ON UNIT   99 WITH FORMAT: (FREE)              

 OPENING FILE ON UNIT   99:
 ..\external_files\ibound\ib7.dat                                                                                                                                                                        



                     BOUNDARY ARRAY FOR LAYER   7
 READING ON UNIT   99 WITH FORMAT: (FREE)              

 AQUIFER HEAD WILL BE SET TO  -999.00     AT ALL NO-FLOW NODES (IBOUND=0).



                       INITIAL HEAD FOR LAYER   1
 READING BINARY ON UNIT   14



                       INITIAL HEAD FOR LAYER   2
 READING BINARY ON UNIT   14



                       INITIAL HEAD FOR LAYER   3
 READING BINARY ON UNIT   14



                       INITIAL HEAD FOR LAYER   4
 READING BINARY ON UNIT   14



                       INITIAL HEAD FOR LAYER   5
 READING BINARY ON UNIT   14



                       INITIAL HEAD FOR LAYER   6
 READING BINARY ON UNIT   14



                       INITIAL HEAD FOR LAYER   7
 READING BINARY ON UNIT   14

 OUTPUT CONTROL IS SPECIFIED ONLY AT TIME STEPS FOR WHICH OUTPUT IS DESIRED
 HEAD PRINT FORMAT CODE IS   0    DRAWDOWN PRINT FORMAT CODE IS   0
 HEADS WILL BE SAVED ON UNIT   30    DRAWDOWNS WILL BE SAVED ON UNIT    0
 # HEADTOL  FLUXTOL   MAXITEROUT THICKFACT LINMETH IPRNWT IBOTAV OPTIONS   [CONTINUE] [DBDTHETA] [DBDKAPPA] [DBDGAMMA] [MOMFACT] [BACKFLAG] [MAXBACKITER] [BACKTOL] [BACKREDUCE]

 NWT1 -- Newton Solver, VERSION 1.1.4, 4/01/2018
         INPUT READ FROM UNIT 19

 SPECIFIED OPTION:
 SOLVER INPUT VALUES ARE SPECIFIED BY USER
 ***XMD linear solver will be used***
 
   CONVERGENCE CRITERION OF   0.300000E-02 FOR HEAD SOLUTION
   AND A TOLERANCE OF   0.175000E+05 FOR FLOW SOLUTION AND 
   A MAXIMUM OF   200 OUTER ITERATIONS. 


   D-B-D REDUCTION FACTOR OF    0.850000E+00 AND 
   A D-B-D INCREASE FACTOR OF    0.100000E-04 AND 
   A D-B-D RELAXATION OF    0.200000E+00 AND 
   A MOMENTUM FACTOR OF    0.100000E-02 .


   BACKTRACKING IS ACTIVE 
   THE MAXIMUM NUMBER OF BACKTRACKS IS    50 AND 
   THE BACKTRACKING TOLERANCE IS    0.150000E+01 AND
   THE BACKTRACKING REDUCTION FACTOR IS    0.700000E+00

 XMD -- LINEAR SOLUTION BY XMD PACKAGE VERSION 1.30
     BY MOTOMU IBARAKI, OHIO STATE UNIVERSITY, COLOMBUS, OH
                 INPUT READ FROM UNIT 19
 #
 # LINMETH = 1
 # [MAXITINNER] [ILUMETHOD] [LEVFILL] [STOPTOL]       [MSDR]
 # 25-1000       1 or 2      0-2       1e-8 to 1e-12  5-20   <-- range
 #  50           2           1         1.0e-10        5      <-- SIMPLE settings
 #  50           2           1         1.0e-10        10     <-- MODERATE settings
 #  50           2           1         1.0e-10        15     <-- COMPLEX settings
 #
 # LINMETH = 2
 # [IACL]      [NORDER]      [LEVEL] [NORTH]       [IREDSYS] [RRCTOLS]    [IDROPTOL] [EPSRN]          [HCLOSEXMD]    [MXITERXMD]
 # 0, 1, or 2  0, 1, or 2    1 - 10  4 - 10 or 2   0 or 1    0 to 0.0001  0 or 1     5.0e-5 to 1.0e-3 1e-3 to 1.0e-5 25-1000
 ACCELERATION METHOD                    (IACL) =         2
 NODE ORDERING FLAG                   (NORDER) =         0
 LEVEL OF FILL                         (LEVEL) =        15
 MAXIMUM NUMBER OF ORTHOGONALIZATIONS  (NORTH) =         1
 INDEX FOR USING REDUCED SYSTEM      (IREDSYS) =         0
 RESID. REDUCTION CONVERGE CRITERION  (RRCTOL) =  0.000000E+00
 INDEX FOR USING DROP TOLERANCE     (IDROPTOL) =         1
 DROP TOLERANCE VALUE                  (EPSRN) =  0.500000E-02
 CONVERGENCE CRITERIA OF           (HCLOSEXMD) =  0.100000E-03
 MAX. NUMBER OF LINEAR ITERATIONS  (MXITERXMD) =       200


 UPW1 -- UPSTREAM WEIGHTING FLOW PACKAGE, VERSION 1.1.4, 4/01/2018
         INPUT READ FROM UNIT 11

 # MODFLOW-NWT UPW Package
 CELL-BY-CELL FLOWS WILL BE SAVED ON UNIT   50
 No named parameters

   LAYER FLAGS:
 LAYER       LAYTYP          LAYAVG    CHANI           LAYVKA           LAYWET
 ---------------------------------------------------------------------------
    1             1             0    -1.000E+00             1             0
    2             4             0    -1.000E+00             1             0
    3             0             0    -1.000E+00             1             0
    4             0             0    -1.000E+00             1             0
    5             0             0    -1.000E+00             1             0
    6             0             0    -1.000E+00             1             0
    7             0             0    -1.000E+00             1             0

   INTERPRETATION OF LAYER FLAGS:
                        INTERBLOCK     HORIZONTAL    DATA IN
         LAYER TYPE   TRANSMISSIVITY   ANISOTROPY   ARRAY VKA   WETTABILITY
 LAYER   (LAYTYP)        (LAYAVG)      (CHANI)     (LAYVKA)       (LAYWET)
 ---------------------------------------------------------------------------
    1   CONVERTIBLE      HARMONIC      VARIABLE    ANISOTROPY  NON-WETTABLE
    2   CONVERTIBLE      HARMONIC      VARIABLE    ANISOTROPY  NON-WETTABLE
    3      CONFINED      HARMONIC      VARIABLE    ANISOTROPY  NON-WETTABLE
    4      CONFINED      HARMONIC      VARIABLE    ANISOTROPY  NON-WETTABLE
    5      CONFINED      HARMONIC      VARIABLE    ANISOTROPY  NON-WETTABLE
    6      CONFINED      HARMONIC      VARIABLE    ANISOTROPY  NON-WETTABLE
    7      CONFINED      HARMONIC      VARIABLE    ANISOTROPY  NON-WETTABLE



              HYD. COND. ALONG ROWS FOR LAYER   1
 READING ON UNIT   73 WITH FORMAT: (7E14.6)            

   HORIZ. ANI. (COL./ROW) =   1.00000     FOR LAYER   1



            HORIZ. TO VERTICAL ANI. FOR LAYER   1
 READING ON UNIT   90 WITH FORMAT: (7E14.6)            

         SPECIFIC STORAGE =  1.842581E-05 FOR LAYER   1

           SPECIFIC YIELD =  1.000000E-02 FOR LAYER   1



              HYD. COND. ALONG ROWS FOR LAYER   2
 READING ON UNIT   74 WITH FORMAT: (7E14.6)            

   HORIZ. ANI. (COL./ROW) =   1.00000     FOR LAYER   2



            HORIZ. TO VERTICAL ANI. FOR LAYER   2
 READING ON UNIT   91 WITH FORMAT: (7E14.6)            

         SPECIFIC STORAGE =  1.225632E-04 FOR LAYER   2

           SPECIFIC YIELD =  5.720837E-02 FOR LAYER   2



              HYD. COND. ALONG ROWS FOR LAYER   3
 READING ON UNIT   75 WITH FORMAT: (7E14.6)            

   HORIZ. ANI. (COL./ROW) =   1.00000     FOR LAYER   3



            HORIZ. TO VERTICAL ANI. FOR LAYER   3
 READING ON UNIT   92 WITH FORMAT: (7E14.6)            

         SPECIFIC STORAGE =  1.322016E-04 FOR LAYER   3



              HYD. COND. ALONG ROWS FOR LAYER   4
 READING ON UNIT   76 WITH FORMAT: (7E14.6)            

   HORIZ. ANI. (COL./ROW) =   1.00000     FOR LAYER   4



            HORIZ. TO VERTICAL ANI. FOR LAYER   4
 READING ON UNIT   93 WITH FORMAT: (7E14.6)            

         SPECIFIC STORAGE =  1.000000E-04 FOR LAYER   4



              HYD. COND. ALONG ROWS FOR LAYER   5
 READING ON UNIT   77 WITH FORMAT: (7E14.6)            

   HORIZ. ANI. (COL./ROW) =   1.00000     FOR LAYER   5



            HORIZ. TO VERTICAL ANI. FOR LAYER   5
 READING ON UNIT   94 WITH FORMAT: (7E14.6)            

         SPECIFIC STORAGE =  1.000000E-05 FOR LAYER   5



              HYD. COND. ALONG ROWS FOR LAYER   6
 READING ON UNIT   78 WITH FORMAT: (7E14.6)            

   HORIZ. ANI. (COL./ROW) =   1.00000     FOR LAYER   6



            HORIZ. TO VERTICAL ANI. FOR LAYER   6
 READING ON UNIT   95 WITH FORMAT: (7E14.6)            

         SPECIFIC STORAGE =  1.000000E-04 FOR LAYER   6



              HYD. COND. ALONG ROWS FOR LAYER   7
 READING ON UNIT   79 WITH FORMAT: (7E14.6)            

   HORIZ. ANI. (COL./ROW) =   1.00000     FOR LAYER   7



            HORIZ. TO VERTICAL ANI. FOR LAYER   7
 READING ON UNIT   96 WITH FORMAT: (7E14.6)            

         SPECIFIC STORAGE =  1.000000E-05 FOR LAYER   7

 WEL -- WELL PACKAGE FOR NWT VERSION 1.1.4,  4/01/2018 INPUT READ FROM UNIT   12
 # Well package input file written by MMProc
 No named parameters
 MAXIMUM OF     52 ACTIVE WELLS AT ONE TIME
 CELL-BY-CELL FLOWS WILL BE SAVED ON UNIT   50
 No named parameters
  PHIRAMP WILL BE SET TO A DEFAULT VALUE OF 1.0E-5
  WELLS WITH REDUCED PUMPING WILL BE REPORTED TO THE MAIN LISTING FILE


     0 Well parameters

 DRN -- DRAIN PACKAGE, VERSION 7, 5/2/2005 INPUT READ FROM UNIT   13
 # MODFLOW2000 Drain Package				
          0 Named Parameters              0 List entries
 MAXIMUM OF    401 ACTIVE DRAINS AT ONE TIME
 CELL-BY-CELL FLOWS WILL BE SAVED ON UNIT   50
 AUXILIARY DRAIN VARIABLE: IFACE           


     0 Drain parameters

 EVT -- EVAPOTRANSPIRATION PACKAGE, VERSION 7, 5/2/2005
         INPUT READ FROM UNIT   20
 # MODFLOW2000 Evapotranspiration Package
 No named parameters
 OPTION 3 -- EVAPOTRANSPIRATION FROM HIGHEST ACTIVE NODE IN EACH VERTICAL COLUMN
 CELL-BY-CELL FLOWS WILL BE SAVED ON UNIT   50


     0 Evapotranspiration parameters

 RCH -- RECHARGE PACKAGE, VERSION 7, 5/2/2005 INPUT READ FROM UNIT   18
 # MODFLOW2000 Recharge Package
 No named parameters
 OPTION 2 -- RECHARGE TO ONE SPECIFIED NODE IN EACH VERTICAL COLUMN
 CELL-BY-CELL FLOWS WILL BE SAVED ON UNIT   50


     0 Recharge parameters

 CHD -- TIME-VARIANT SPECIFIED-HEAD OPTION, VERSION 7, 5/2/2005
 INPUT READ FROM UNIT   16
 # MODFLOW2000 Constant-Head Boundary Package (CHD)				
 No named parameters
 MAXIMUM OF   1327 TIME-VARIANT SPECIFIED-HEAD CELLS AT ONE TIME


     0 TIME-VARIANT SPECIFIED-HEAD PARAMETERS

 SFR7 -- STREAMFLOW ROUTING PACKAGE, VERSION 1.0.5, 2012-04-05
         INPUT READ FROM UNIT  27
 # SFR Package for MODFLOW2000
 #OPTIONS
 #TABFILES 2 493
 #END
 No named parameters


 NUMBER OF STREAM REACHES IS 2032

 NUMBER OF STREAM SEGMENTS IS    8

 NUMBER OF STREAM PARAMETERS IS    0

 NUMBER OF STREAM SEGMENTS DEFINED USING PARAMETERS IS              0

 MAXIMUM ERROR FOR STREAM LEAKAGE RATES IS  1.00E-04

 CONSTANT FOR MANNINGS EQUATION IS  1.2839E+05





 USING DATA INPUT MODIFIED FROM ORIGINAL SFR PROGRAM FOR FARM PACKAGE

 FLOW TO AND FROM GROUND WATER FOR EACH STREAM REACH WILL BE SAVED ON UNIT   50


   STREAM NETWORK DESCRIPTION: 

   LAYER    ROW    COL   SEGMENT   REACH     LENGTH     STREAMBED     STREAMBED   STREAMBED     STREAMBED
                          NUMBER   NUMBER    IN CELL    TOP ELEV.       SLOPE     THICKNESS   HYDR. CONDUCT.        
   ---------------------------------------------------------------------------------------------------------
       1      1     71       1        1    2.1605E+02   1.3237E+03   5.4400E-04   1.0000E+00   4.0643E-01
       1      2     71       1        2    2.3054E+02   1.3236E+03   3.5700E-04   1.0000E+00   4.0643E-01
       1      3     71       1        3    8.2380E+01   1.3235E+03   6.3100E-04   1.0000E+00   4.0643E-01
       1      3     72       1        4    1.5337E+02   1.3235E+03   5.7400E-04   1.0000E+00   4.0643E-01
       1      4     72       1        5    2.4621E+02   1.3234E+03   4.6900E-04   1.0000E+00   4.0643E-01
       1      5     72       1        6    5.3485E+00   1.3233E+03   2.3261E-02   1.0000E+00   4.0643E-01
       1      5     73       1        7    2.6540E+02   1.3231E+03   1.9900E-04   1.0000E+00   4.0643E-01
       1      5     74       1        8    4.3788E+01   1.3231E+03   9.0400E-04   1.0000E+00   4.0643E-01
       1      6     74       1        9    1.8807E+02   1.3230E+03   3.7300E-04   1.0000E+00   4.0643E-01
       1      6     75       1       10    2.2310E+02   1.3230E+03   1.8600E-04   1.0000E+00   4.0643E-01
       1      6     76       1       11    1.9977E+01   1.3229E+03   1.7970E-03   1.0000E+00   4.0643E-01
       1      7     76       1       12    1.9020E+02   1.3229E+03   1.7298E-02   1.0000E+00   4.0643E-01
       1      7     77       1       13    2.0267E+02   1.3196E+03   1.1840E-03   1.0000E+00   4.0643E-01
       1      7     78       1       14    2.0267E+02   1.3194E+03   6.9100E-04   1.0000E+00   4.0643E-01
       1      7     79       1       15    2.0278E+02   1.3192E+03   1.0000E-04   1.0000E+00   4.0643E-01
       1      7     80       1       16    2.0242E+02   1.3192E+03   1.0000E-04   1.0000E+00   4.0643E-01
       1      7     81       1       17    2.0152E+02   1.3192E+03   1.0000E-04   1.0000E+00   4.0643E-01
       1      7     82       1       18    2.2096E+02   1.3192E+03   1.0000E-04   1.0000E+00   4.0643E-01
       1      7     83       1       19    2.1706E+01   1.3192E+03   2.0400E-04   1.0000E+00   4.0643E-01
       1      8     83       1       20    2.4326E+02   1.3192E+03   1.0000E-04   1.0000E+00   4.0643E-01
       1      8     84       1       21    5.8374E+01   1.3192E+03   1.0000E-04   1.0000E+00   4.0643E-01
       1      9     84       1       22    2.3658E+02   1.3192E+03   1.0000E-04   1.0000E+00   4.0643E-01
       1      9     85       1       23    3.0193E+01   1.3192E+03   1.4200E-04   1.0000E+00   4.0643E-01
       1     10     85       1       24    2.2591E+02   1.3192E+03   1.0000E-04   1.0000E+00   4.0643E-01
       1     11     85       1       25    1.4147E+02   1.3192E+03   1.0000E-04   1.0000E+00   4.0643E-01
       1     11     86       1       26    2.2155E+02   1.3192E+03   1.0000E-04   1.0000E+00   4.0643E-01
       1     11     87       1       27    4.3959E+01   1.3192E+03   1.2700E-04   1.0000E+00   4.0643E-01
       1     12     87       1       28    2.6380E+02   1.3191E+03   1.0000E-04   1.0000E+00   4.0643E-01
       1     13     87       1       29    1.4457E+01   1.3191E+03   2.7400E-04   1.0000E+00   4.0643E-01
       1     13     88       1       30    2.0366E+02   1.3191E+03   1.0000E-04   1.0000E+00   4.0643E-01
       1     14     88       1       31    2.3340E+02   1.3191E+03   1.0000E-04   1.0000E+00   4.0643E-01
       1     14     89       1       32    8.3197E+01   1.3191E+03   1.0000E-04   1.0000E+00   4.0643E-01
       1     15     89       1       33    1.2037E+02   1.3191E+03   1.0000E-04   1.0000E+00   4.0643E-01
       1     15     90       1       34    2.0164E+02   1.3191E+03   1.0000E-04   1.0000E+00   4.0643E-01
       1     15     91       1       35    2.0160E+02   1.3191E+03   8.2840E-03   1.0000E+00   4.0643E-01
       1     15     92       1       36    1.2872E+02   1.3174E+03   1.0000E-04   1.0000E+00   4.0643E-01
       1     14     92       1       37    8.0451E+01   1.3174E+03   1.0000E-04   1.0000E+00   4.0643E-01
       1     14     93       1       38    2.1076E+02   1.3174E+03   3.8000E-04   1.0000E+00   4.0643E-01
       1     14     94       1       39    2.0360E+02   1.3173E+03   1.4240E-03   1.0000E+00   4.0643E-01
       1     14     95       1       40    2.1109E+02   1.3171E+03   1.0000E-04   1.0000E+00   4.0643E-01
       1     14     96       1       41    3.0325E+01   1.3171E+03   2.6200E-04   1.0000E+00   4.0643E-01
       1     15     96       1       42    2.0029E+02   1.3170E+03   1.0000E-04   1.0000E+00   4.0643E-01
       1     15     97       1       43    1.5892E+02   1.3170E+03   1.0000E-04   1.0000E+00   4.0643E-01
       1     16     97       1       44    9.7880E+01   1.3170E+03   1.0800E-04   1.0000E+00   4.0643E-01
       1     16     98       1       45    2.0858E+02   1.3170E+03   1.0000E-04   1.0000E+00   4.0643E-01
       1     17     98       1       46    5.5388E+01   1.3170E+03   1.7500E-04   1.0000E+00   4.0643E-01
       1     17     99       1       47    2.2572E+02   1.3170E+03   1.0000E-04   1.0000E+00   4.0643E-01
       1     17    100       1       48    1.4565E+02   1.3170E+03   1.0000E-04   1.0000E+00   4.0643E-01
       1     18    100       1       49    9.0866E+01   1.3170E+03   1.0100E-04   1.0000E+00   4.0643E-01
       1     18    101       1       50    1.7599E+02   1.3170E+03   1.0000E-04   1.0000E+00   4.0643E-01
       1     19    101       1       51    2.1597E+02   1.3169E+03   1.0000E-04   1.0000E+00   4.0643E-01
       1     20    101       1       52    5.7542E+01   1.3169E+03   6.9500E-04   1.0000E+00   4.0643E-01
       1     20    102       1       53    1.8303E+02   1.3169E+03   2.6770E-03   1.0000E+00   4.0643E-01
       1     21    102       1       54    1.1808E+02   1.3164E+03   7.3700E-04   1.0000E+00   4.0643E-01
       1     21    103       1       55    2.1954E+02   1.3163E+03   3.9500E-04   1.0000E+00   4.0643E-01
       1     21    104       1       56    1.1690E+02   1.3162E+03   5.6700E-04   1.0000E+00   4.0643E-01
       1     22    104       1       57    1.4013E+02   1.3162E+03   7.0500E-04   1.0000E+00   4.0643E-01
       1     22    105       1       58    1.0867E+02   1.3161E+03   1.3840E-03   1.0000E+00   4.0643E-01
       1     23    105       1       59    2.7037E+02   1.3159E+03   3.9900E-04   1.0000E+00   4.0643E-01
       1     23    106       1       60    1.4467E+00   1.3158E+03   5.6391E-02   1.0000E+00   4.0643E-01
       1     24    106       1       61    2.0411E+02   1.3157E+03   7.9100E-04   1.0000E+00   4.0643E-01
       1     24    107       1       62    2.0249E+02   1.3156E+03   3.1610E-03   1.0000E+00   4.0643E-01
       1     24    108       1       63    2.0506E+02   1.3149E+03   2.0970E-03   1.0000E+00   4.0643E-01
       1     24    109       1       64    2.2974E+02   1.3145E+03   1.3900E-04   1.0000E+00   4.0643E-01
       1     24    110       1       65    6.6305E+01   1.3145E+03   3.5000E-04   1.0000E+00   4.0643E-01
       1     25    110       1       66    1.4799E+02   1.3144E+03   2.5900E-04   1.0000E+00   4.0643E-01
       1     25    111       1       67    2.0681E+02   1.3144E+03   2.2500E-04   1.0000E+00   4.0643E-01
       1     25    112       1       68    2.2249E+02   1.3144E+03   3.6600E-04   1.0000E+00   4.0643E-01
       1     25    113       1       69    2.9468E+01   1.3143E+03   2.3230E-03   1.0000E+00   4.0643E-01
       1     26    113       1       70    1.8210E+02   1.3142E+03   1.3784E-02   1.0000E+00   4.0643E-01
       1     26    114       1       71    2.1111E+02   1.3117E+03   2.3680E-03   1.0000E+00   4.0643E-01
       1     26    115       1       72    2.0416E+02   1.3112E+03   1.0000E-04   1.0000E+00   4.0643E-01
       1     26    116       1       73    2.5770E+02   1.3112E+03   1.0000E-04   1.0000E+00   4.0643E-01
       1     26    117       1       74    5.8484E+00   1.3112E+03   9.6200E-04   1.0000E+00   4.0643E-01
       1     27    117       1       75    2.7809E+02   1.3112E+03   1.0000E-04   1.0000E+00   4.0643E-01
       1     28    117       1       76    5.0298E+00   1.3112E+03   1.0860E-03   1.0000E+00   4.0643E-01
       1     28    118       1       77    2.7057E+02   1.3112E+03   1.0000E-04   1.0000E+00   4.0643E-01
       1     29    118       1       78    2.3192E+01   1.3112E+03   2.4000E-04   1.0000E+00   4.0643E-01
       1     29    119       1       79    2.5813E+02   1.3112E+03   1.0000E-04   1.0000E+00   4.0643E-01
       1     30    119       1       80    2.3083E+01   1.3112E+03   2.1100E-04   1.0000E+00   4.0643E-01
       1     30    120       1       81    2.2310E+02   1.3111E+03   1.0000E-04   1.0000E+00   4.0643E-01
       1     30    121       1       82    1.7548E+02   1.3111E+03   1.0000E-04   1.0000E+00   4.0643E-01
       1     31    121       1       83    5.5091E+01   1.3111E+03   1.1300E-04   1.0000E+00   4.0643E-01
       1     31    122       1       84    2.6005E+02   1.3111E+03   1.0000E-04   1.0000E+00   4.0643E-01
       1     31    123       1       85    1.1217E+01   1.3111E+03   4.3800E-04   1.0000E+00   4.0643E-01
       1     32    123       1       86    2.3679E+02   1.3111E+03   1.0000E-04   1.0000E+00   4.0643E-01
       1     33    123       1       87    2.0617E+02   1.3111E+03   1.0000E-04   1.0000E+00   4.0643E-01
       1     33    124       1       88    9.0196E+00   1.3111E+03   6.2600E-04   1.0000E+00   4.0643E-01
       1     34    124       1       89    2.7571E+02   1.3111E+03   1.0000E-04   1.0000E+00   4.0643E-01
       1     34    125       1       90    2.6665E+01   1.3111E+03   1.7800E-04   1.0000E+00   4.0643E-01
       1     35    125       1       91    2.1234E+02   1.3111E+03   1.0000E-04   1.0000E+00   4.0643E-01
       1     35    126       1       92    1.4713E+02   1.3111E+03   1.0000E-04   1.0000E+00   4.0643E-01
       1     36    126       1       93    1.1992E+02   1.3111E+03   1.0000E-04   1.0000E+00   4.0643E-01
       1     36    127       1       94    1.3305E+02   1.3111E+03   1.0000E-04   1.0000E+00   4.0643E-01
       1     37    127       1       95    2.2299E+02   1.3111E+03   1.0000E-04   1.0000E+00   4.0643E-01
       1     37    128       1       96    3.3832E+01   1.3111E+03   1.2600E-04   1.0000E+00   4.0643E-01
       1     38    128       1       97    1.8163E+02   1.3111E+03   1.0000E-04   1.0000E+00   4.0643E-01
       1     38    129       1       98    2.0075E+02   1.3110E+03   1.0000E-04   1.0000E+00   4.0643E-01
       1     38    130       1       99    2.0531E+02   1.3110E+03   1.0000E-04   1.0000E+00   4.0643E-01
       1     38    131       2        1    4.9952E+01   1.3110E+03   1.0000E-04   1.0000E+00   1.0000E-03
       1     37    131       2        2    1.5236E+02   1.3110E+03   1.0000E-04   1.0000E+00   1.0000E-03
       1     37    132       2        3    2.1455E+02   1.3110E+03   1.0000E-04   1.0000E+00   1.0000E-03
       1     37    133       2        4    2.0332E+02   1.3110E+03   1.0000E-04   1.0000E+00   1.0000E-03
       1     37    134       2        5    2.3397E+02   1.3110E+03   1.0000E-04   1.0000E+00   1.0000E-03
       1     38    134       2        6    3.9361E+00   1.3110E+03   1.2620E-03   1.0000E+00   1.0000E-03
       1     38    135       2        7    2.4658E+02   1.3110E+03   1.0000E-04   1.0000E+00   1.0000E-03
       1     39    135       2        8    1.7460E+02   1.3110E+03   1.0000E-04   1.0000E+00   1.0000E-03
       1     39    136       2        9    3.6424E+01   1.3110E+03   1.0600E-04   1.0000E+00   1.0000E-03
       1     40    136       2       10    1.5771E+02   1.3110E+03   1.0000E-04   1.0000E+00   1.0000E-03
       1     40    135       2       11    5.0026E+01   1.3110E+03   1.2400E-04   1.0000E+00   1.0000E-03
       1     41    135       2       12    2.6209E+02   1.3110E+03   1.0000E-04   1.0000E+00   1.0000E-03
       1     42    135       2       13    2.4991E+01   1.3110E+03   1.9400E-04   1.0000E+00   1.0000E-03
       1     42    134       2       14    2.2011E+02   1.3110E+03   1.0000E-04   1.0000E+00   1.0000E-03
       1     43    134       2       15    2.0001E+02   1.3110E+03   1.0000E-04   1.0000E+00   1.0000E-03
       1     44    134       2       16    2.0193E+02   1.3109E+03   1.0000E-04   1.0000E+00   1.0000E-03
       1     45    134       2       17    2.0385E+02   1.3109E+03   1.0000E-04   1.0000E+00   1.0000E-03
       1     46    134       2       18    2.0001E+02   1.3109E+03   1.0000E-04   1.0000E+00   1.0000E-03
       1     47    134       2       19    2.0001E+02   1.3109E+03   1.0000E-04   1.0000E+00   1.0000E-03
       1     48    134       2       20    2.0554E+02   1.3109E+03   1.0000E-04   1.0000E+00   1.0000E-03
       1     49    134       2       21    2.2395E+02   1.3109E+03   1.0000E-04   1.0000E+00   1.0000E-03
       1     50    134       2       22    5.6053E+01   1.3109E+03   1.0500E-04   1.0000E+00   1.0000E-03
       1     50    135       2       23    2.4131E+02   1.3109E+03   1.0000E-04   1.0000E+00   1.0000E-03
       1     51    135       2       24    2.6360E+01   1.3109E+03   1.8500E-04   1.0000E+00   1.0000E-03
       1     51    136       2       25    2.2009E+02   1.3109E+03   1.0000E-04   1.0000E+00   1.0000E-03
       1     51    137       2       26    2.1400E+02   1.3109E+03   1.0000E-04   1.0000E+00   1.0000E-03
       1     52    137       2       27    2.1545E+01   1.3109E+03   2.1100E-04   1.0000E+00   1.0000E-03
       1     52    138       2       28    2.0770E+02   1.3109E+03   1.0000E-04   1.0000E+00   1.0000E-03
       1     53    138       2       29    2.0167E+02   1.3109E+03   1.0000E-04   1.0000E+00   1.0000E-03
       1     54    138       2       30    2.3317E+02   1.3108E+03   1.0000E-04   1.0000E+00   1.0000E-03
       1     55    138       2       31    4.4182E+00   1.3108E+03   1.2710E-03   1.0000E+00   1.0000E-03
       1     55    137       2       32    2.7882E+02   1.3108E+03   1.0000E-04   1.0000E+00   1.0000E-03
       1     56    137       2       33    3.6217E+00   1.3108E+03   1.5230E-03   1.0000E+00   1.0000E-03
       1     56    136       2       34    2.7458E+02   1.3108E+03   1.0000E-04   1.0000E+00   1.0000E-03
       1     57    136       2       35    2.0974E+01   1.3108E+03   2.1100E-04   1.0000E+00   1.0000E-03
       1     57    135       2       36    2.0205E+02   1.3108E+03   1.0000E-04   1.0000E+00   1.0000E-03
       1     58    135       2       37    2.0001E+02   1.3108E+03   1.0000E-04   1.0000E+00   1.0000E-03
       1     59    135       2       38    2.2658E+02   1.3108E+03   1.0000E-04   1.0000E+00   1.0000E-03
       1     60    135       2       39    1.9192E+01   1.3108E+03   2.3500E-04   1.0000E+00   1.0000E-03
       1     60    136       2       40    2.0821E+02   1.3108E+03   1.0000E-04   1.0000E+00   1.0000E-03
       1     61    136       2       41    1.8079E+02   1.3108E+03   1.0000E-04   1.0000E+00   1.0000E-03
       1     61    137       2       42    1.5826E+02   1.3108E+03   1.0000E-04   1.0000E+00   1.0000E-03
       1     62    137       2       43    5.2979E+01   1.3108E+03   1.0000E-04   1.0000E+00   1.0000E-03
       1     62    138       2       44    2.0003E+02   1.3108E+03   1.0000E-04   1.0000E+00   1.0000E-03
       1     62    139       2       45    2.5298E+02   1.3108E+03   1.0000E-04   1.0000E+00   1.0000E-03
       1     62    140       2       46    7.3964E+01   1.3107E+03   1.0000E-04   1.0000E+00   1.0000E-03
       1     63    140       2       47    2.0010E+02   1.3107E+03   1.0000E-04   1.0000E+00   1.0000E-03
       1     64    140       2       48    1.6997E+02   1.3107E+03   1.0000E-04   1.0000E+00   1.0000E-03
       1     64    139       2       49    3.2055E+01   1.3107E+03   1.4600E-04   1.0000E+00   1.0000E-03
       1     65    139       2       50    2.0341E+02   1.3107E+03   1.0000E-04   1.0000E+00   1.0000E-03
       1     66    139       2       51    2.0341E+02   1.3107E+03   1.0000E-04   1.0000E+00   1.0000E-03
       2     67    139       2       52    2.2155E+02   1.3107E+03   1.0000E-04   1.0000E+00   1.0000E-03
       2     68    139       2       53    5.7483E+01   1.3107E+03   1.0000E-04   1.0000E+00   1.0000E-03
       2     68    138       2       54    1.6041E+02   1.3107E+03   1.0000E-04   1.0000E+00   1.0000E-03
       2     69    138       2       55    3.4247E+01   1.3107E+03   1.4600E-04   1.0000E+00   1.0000E-03
       2     69    139       2       56    2.1819E+02   1.3107E+03   1.0000E-04   1.0000E+00   1.0000E-03
       2     70    139       2       57    8.5854E+01   1.3107E+03   1.0000E-04   1.0000E+00   1.0000E-03
       2     70    140       2       58    2.4602E+02   1.3107E+03   3.2500E-04   1.0000E+00   1.0000E-03
       2     70    141       2       59    1.6998E+01   1.3106E+03   1.3831E-02   1.0000E+00   1.0000E-03
       2     71    141       2       60    2.0858E+02   1.3104E+03   1.2100E-03   1.0000E+00   1.0000E-03
       2     72    141       2       61    3.3506E+01   1.3101E+03   7.5380E-03   1.0000E+00   1.0000E-03
       2     72    140       2       62    2.0884E+02   1.3099E+03   1.0000E-04   1.0000E+00   1.0000E-03
       2     73    140       2       63    2.1246E+02   1.3099E+03   1.0000E-04   1.0000E+00   1.0000E-03
       2     74    140       2       64    2.5012E+02   1.3099E+03   1.0000E-04   1.0000E+00   1.0000E-03
       2     74    141       2       65    6.6368E+01   1.3099E+03   1.0000E-04   1.0000E+00   1.0000E-03
       2     75    141       2       66    1.7580E+02   1.3098E+03   7.6220E-03   1.0000E+00   1.0000E-03
       2     75    142       2       67    2.1381E+02   1.3085E+03   9.4480E-03   1.0000E+00   1.0000E-03
       2     75    143       2       68    5.8667E+01   1.3065E+03   3.4100E-04   1.0000E+00   1.0000E-03
       2     76    143       2       69    2.0334E+02   1.3065E+03   3.7200E-04   1.0000E+00   1.0000E-03
       2     76    144       2       70    1.7384E+02   1.3064E+03   2.5000E-04   1.0000E+00   1.0000E-03
       1     77    144       2       71    4.2471E+01   1.3064E+03   1.1980E-03   1.0000E+00   1.0000E-03
       2     77    145       2       72    2.1100E+02   1.3063E+03   1.0000E-04   1.0000E+00   1.0000E-03
       2     77    146       2       73    2.2420E+02   1.3063E+03   1.0000E-04   1.0000E+00   1.0000E-03
       2     77    147       2       74    4.0186E+01   1.3063E+03   1.0000E-04   1.0000E+00   1.0000E-03
       2     78    147       2       75    1.9801E+02   1.3063E+03   1.0000E-04   1.0000E+00   1.0000E-03
       2     78    148       2       76    2.0843E+02   1.3063E+03   1.0000E-04   1.0000E+00   1.0000E-03
       2     78    149       2       77    2.0380E+02   1.3063E+03   1.0000E-04   1.0000E+00   1.0000E-03
       2     78    150       2       78    2.0938E+02   1.3063E+03   1.0000E-04   1.0000E+00   1.0000E-03
       2     78    151       2       79    2.1578E+02   1.3063E+03   1.0000E-04   1.0000E+00   1.0000E-03
       2     78    152       2       80    2.1173E+02   1.3063E+03   1.0000E-04   1.0000E+00   1.0000E-03
       2     78    153       2       81    1.4655E+02   1.3063E+03   1.0000E-04   1.0000E+00   1.0000E-03
       2     79    153       2       82    1.2084E+02   1.3062E+03   1.0000E-04   1.0000E+00   1.0000E-03
       2     79    154       2       83    1.0804E+02   1.3062E+03   1.0000E-04   1.0000E+00   1.0000E-03
       2     80    154       2       84    2.3288E+02   1.3062E+03   1.8000E-04   1.0000E+00   1.0000E-03
       2     81    154       2       85    1.4227E+02   1.3062E+03   1.6500E-04   1.0000E+00   1.0000E-03
       2     81    155       2       86    6.7550E+01   1.3062E+03   1.1900E-04   1.0000E+00   1.0000E-03
       2     82    155       2       87    4.1834E+00   1.3062E+03   5.3480E-03   1.0000E+00   1.0000E-03
       2     82    154       2       88    1.9584E+02   1.3061E+03   1.9000E-04   1.0000E+00   1.0000E-03
       2     83    154       2       89    1.3657E+02   1.3061E+03   1.6600E-04   1.0000E+00   1.0000E-03
       2     83    155       2       90    6.6101E+01   1.3061E+03   5.1900E-04   1.0000E+00   1.0000E-03
       2     84    155       2       91    2.4073E+02   1.3061E+03   8.7100E-04   1.0000E+00   1.0000E-03
       2     85    155       2       92    8.3736E+01   1.3058E+03   2.5120E-03   1.0000E+00   1.0000E-03
       2     85    156       2       93    2.4175E+02   1.3056E+03   1.0000E-04   1.0000E+00   1.0000E-03
       2     85    157       2       94    1.2030E+01   1.3056E+03   1.9100E-04   1.0000E+00   1.0000E-03
       2     86    157       2       95    2.0956E+02   1.3056E+03   1.0000E-04   1.0000E+00   1.0000E-03
       2     86    158       2       96    2.1263E+02   1.3056E+03   1.0000E-04   1.0000E+00   1.0000E-03
       2     86    159       2       97    1.4291E+02   1.3056E+03   1.0000E-04   1.0000E+00   1.0000E-03
       2     87    159       2       98    6.5213E+01   1.3056E+03   1.0000E-04   1.0000E+00   1.0000E-03
       2     87    160       2       99    2.0709E+02   1.3056E+03   1.0000E-04   1.0000E+00   1.0000E-03
       2     87    161       2      100    5.5955E+01   1.3056E+03   1.0000E-04   1.0000E+00   1.0000E-03
       2     86    161       2      101    2.0910E+02   1.3056E+03   1.0000E-04   1.0000E+00   1.0000E-03
       2     85    161       2      102    2.1064E+02   1.3056E+03   1.0000E-04   1.0000E+00   1.0000E-03
       2     84    161       2      103    1.4274E+02   1.3056E+03   1.0000E-04   1.0000E+00   1.0000E-03
       2     84    160       2      104    7.6869E+01   1.3056E+03   1.0000E-04   1.0000E+00   1.0000E-03
       2     83    160       2      105    2.0221E+02   1.3056E+03   1.0000E-04   1.0000E+00   1.0000E-03
       2     82    160       2      106    1.2845E+02   1.3056E+03   1.0000E-04   1.0000E+00   1.0000E-03
       2     82    161       2      107    2.3036E+02   1.3056E+03   1.0000E-04   1.0000E+00   1.0000E-03
       2     82    162       2      108    1.4597E+02   1.3056E+03   1.0000E-04   1.0000E+00   1.0000E-03
       2     83    162       2      109    1.9114E+02   1.3056E+03   1.0000E-04   1.0000E+00   1.0000E-03
       2     83    163       2      110    4.4466E+01   1.3056E+03   1.0000E-04   1.0000E+00   1.0000E-03
       2     84    163       2      111    2.3560E+02   1.3056E+03   1.0000E-04   1.0000E+00   1.0000E-03
       2     85    163       2      112    9.8306E+01   1.3056E+03   1.0000E-04   1.0000E+00   1.0000E-03
       2     85    164       2      113    1.2683E+02   1.3056E+03   1.0000E-04   1.0000E+00   1.0000E-03
       2     86    164       2      114    2.0506E+02   1.3056E+03   1.0000E-04   1.0000E+00   1.0000E-03
       2     87    164       2      115    2.0328E+02   1.3056E+03   1.0000E-04   1.0000E+00   1.0000E-03
       2     88    164       2      116    2.0849E+02   1.3056E+03   1.0000E-04   1.0000E+00   1.0000E-03
       2     88    165       2      117    1.6870E+01   1.3056E+03   1.4200E-04   1.0000E+00   1.0000E-03
       2     89    165       2      118    2.1299E+02   1.3056E+03   1.0000E-04   1.0000E+00   1.0000E-03
       2     90    165       2      119    2.2200E+02   1.3055E+03   1.0000E-04   1.0000E+00   1.0000E-03
       2     91    165       2      120    6.8427E+01   1.3055E+03   1.0000E-04   1.0000E+00   1.0000E-03
       1     91    166       2      121    1.4161E+02   1.3055E+03   1.0000E-04   1.0000E+00   1.0000E-03
       1     92    166       2      122    2.1072E+02   1.3055E+03   1.0000E-04   1.0000E+00   1.0000E-03
       1     93    166       2      123    2.1570E+02   1.3055E+03   1.0000E-04   1.0000E+00   1.0000E-03
       1     94    166       2      124    1.4314E+02   1.3055E+03   1.0000E-04   1.0000E+00   1.0000E-03
       1     94    167       2      125    1.3260E+02   1.3055E+03   1.0000E-04   1.0000E+00   1.0000E-03
       1     95    167       2      126    1.3624E+02   1.3055E+03   1.0000E-04   1.0000E+00   1.0000E-03
       1     95    168       2      127    1.6940E+02   1.3055E+03   1.0000E-04   1.0000E+00   1.0000E-03
       1     96    168       2      128    1.1384E+02   1.3055E+03   1.0000E-04   1.0000E+00   1.0000E-03
       1     96    169       2      129    1.1812E+02   1.3055E+03   1.0000E-04   1.0000E+00   1.0000E-03
       1     97    169       2      130    2.0328E+02   1.3055E+03   1.0000E-04   1.0000E+00   1.0000E-03
       1     98    169       2      131    1.5938E+01   1.3055E+03   1.3600E-04   1.0000E+00   1.0000E-03
       1     98    168       2      132    1.9324E+02   1.3055E+03   1.0000E-04   1.0000E+00   1.0000E-03
       1     99    168       2      133    2.1666E+02   1.3055E+03   1.0000E-04   1.0000E+00   1.0000E-03
       1    100    168       2      134    2.0438E+02   1.3055E+03   1.0000E-04   1.0000E+00   1.0000E-03
       1    101    168       2      135    2.0091E+02   1.3055E+03   1.0000E-04   1.0000E+00   1.0000E-03
       1    102    168       2      136    9.0285E+01   1.3055E+03   1.0000E-04   1.0000E+00   1.0000E-03
       1    102    167       2      137    1.1258E+02   1.3055E+03   1.0000E-04   1.0000E+00   1.0000E-03
       1    103    167       2      138    2.0434E+02   1.3055E+03   1.0000E-04   1.0000E+00   1.0000E-03
       1    104    167       2      139    2.0677E+02   1.3055E+03   1.0000E-04   1.0000E+00   1.0000E-03
       1    105    167       2      140    2.0594E+02   1.3055E+03   1.0000E-04   1.0000E+00   1.0000E-03
       1    106    167       2      141    1.6795E+02   1.3055E+03   1.0000E-04   1.0000E+00   1.0000E-03
       1    106    166       2      142    4.2024E+01   1.3055E+03   1.0000E-04   1.0000E+00   1.0000E-03
       1    107    166       2      143    2.2169E+02   1.3055E+03   1.0000E-04   1.0000E+00   1.0000E-03
       1    108    166       2      144    2.0674E+02   1.3055E+03   1.0000E-04   1.0000E+00   1.0000E-03
       1    109    166       2      145    2.0211E+02   1.3055E+03   1.0000E-04   1.0000E+00   1.0000E-03
       1    110    166       2      146    2.0030E+02   1.3055E+03   1.0000E-04   1.0000E+00   1.0000E-03
       1    111    166       2      147    6.0613E+01   1.3055E+03   1.0000E-04   1.0000E+00   1.0000E-03
       1    111    165       2      148    1.3979E+02   1.3055E+03   1.0000E-04   1.0000E+00   1.0000E-03
       1    112    165       2      149    2.0120E+02   1.3054E+03   1.0000E-04   1.0000E+00   1.0000E-03
       1    113    165       2      150    2.0219E+02   1.3054E+03   1.0000E-04   1.0000E+00   1.0000E-03
       1    114    165       2      151    2.2261E+02   1.3054E+03   1.0000E-04   1.0000E+00   1.0000E-03
       1    115    165       2      152    8.7532E+01   1.3054E+03   1.0000E-04   1.0000E+00   1.0000E-03
       1    115    164       2      153    1.7354E+02   1.3054E+03   1.0000E-04   1.0000E+00   1.0000E-03
       1    116    164       2      154    1.2307E+02   1.3054E+03   1.0000E-04   1.0000E+00   1.0000E-03
       1    116    163       2      155    1.5489E+02   1.3054E+03   1.0000E-04   1.0000E+00   1.0000E-03
       1    117    163       2      156    1.3310E+02   1.3054E+03   1.0000E-04   1.0000E+00   1.0000E-03
       1    117    162       2      157    1.3191E+02   1.3054E+03   1.0000E-04   1.0000E+00   1.0000E-03
       1    118    162       2      158    2.1622E+02   1.3054E+03   1.0000E-04   1.0000E+00   1.0000E-03
       1    119    162       2      159    2.0606E+02   1.3054E+03   1.0000E-04   1.0000E+00   1.0000E-03
       1    120    162       2      160    2.1180E+02   1.3054E+03   1.0000E-04   1.0000E+00   1.0000E-03
       1    121    162       2      161    8.7591E+01   1.3054E+03   1.0000E-04   1.0000E+00   1.0000E-03
       1    121    161       2      162    1.6526E+02   1.3054E+03   1.0000E-04   1.0000E+00   1.0000E-03
       1    122    161       2      163    1.2602E+02   1.3054E+03   1.0000E-04   1.0000E+00   1.0000E-03
       1    122    160       2      164    2.1953E+02   1.3054E+03   1.0000E-04   1.0000E+00   1.0000E-03
       1    123    160       2      165    1.7981E+01   1.3054E+03   1.4800E-04   1.0000E+00   1.0000E-03
       1    123    159       2      166    2.3751E+02   1.3054E+03   1.0000E-04   1.0000E+00   1.0000E-03
       1    123    158       2      167    8.4739E+01   1.3054E+03   1.0000E-04   1.0000E+00   1.0000E-03
       1    124    158       2      168    2.1002E+02   1.3054E+03   1.0000E-04   1.0000E+00   1.0000E-03
       1    124    157       2      169    6.2163E+01   1.3054E+03   1.0000E-04   1.0000E+00   1.0000E-03
       1    125    157       2      170    1.7643E+02   1.3054E+03   1.0000E-04   1.0000E+00   1.0000E-03
       1    125    156       2      171    2.4354E+02   1.3054E+03   1.0000E-04   1.0000E+00   1.0000E-03
       1    126    156       2      172    1.4892E+01   1.3054E+03   1.6300E-04   1.0000E+00   1.0000E-03
       1    126    155       2      173    2.1878E+02   1.3054E+03   1.0000E-04   1.0000E+00   1.0000E-03
       1    127    155       2      174    2.0944E+02   1.3054E+03   1.0000E-04   1.0000E+00   1.0000E-03
       1    128    155       2      175    1.2058E+02   1.3054E+03   1.0000E-04   1.0000E+00   1.0000E-03
       1    128    154       2      176    8.8686E+01   1.3054E+03   1.0000E-04   1.0000E+00   1.0000E-03
       1    129    154       2      177    2.0927E+02   1.3054E+03   1.0000E-04   1.0000E+00   1.0000E-03
       1    130    154       3        1    2.0286E+02   1.3054E+03   1.0000E-04   1.0000E+00   1.0000E-03
       1    131    154       3        2    2.0001E+02   1.3053E+03   1.0000E-04   1.0000E+00   1.0000E-03
       1    132    154       3        3    2.0268E+02   1.3053E+03   1.0000E-04   1.0000E+00   1.0000E-03
       1    133    154       3        4    2.0765E+02   1.3053E+03   1.0000E-04   1.0000E+00   1.0000E-03
       1    134    154       3        5    2.8507E+02   1.3053E+03   1.0000E-04   1.0000E+00   1.0000E-03
       1    134    153       3        6    2.0277E+02   1.3053E+03   1.0000E-04   1.0000E+00   1.0000E-03
       1    134    152       3        7    1.3306E+01   1.3053E+03   1.5700E-04   1.0000E+00   1.0000E-03
       1    135    152       3        8    1.8748E+02   1.3053E+03   1.0000E-04   1.0000E+00   1.0000E-03
       1    135    151       3        9    2.4025E+02   1.3053E+03   1.0000E-04   1.0000E+00   1.0000E-03
       1    135    150       3       10    1.1433E+02   1.3053E+03   1.0000E-04   1.0000E+00   1.0000E-03
       1    136    150       3       11    2.0076E+02   1.3053E+03   1.0000E-04   1.0000E+00   1.0000E-03
       1    137    150       3       12    9.3632E+01   1.3053E+03   1.0000E-04   1.0000E+00   1.0000E-03
       1    137    151       3       13    1.2179E+02   1.3053E+03   1.0000E-04   1.0000E+00   1.0000E-03
       1    138    151       3       14    2.4822E+02   1.3053E+03   1.0000E-04   1.0000E+00   1.0000E-03
       1    139    151       3       15    1.8270E+01   1.3053E+03   1.2700E-04   1.0000E+00   1.0000E-03
       1    139    152       3       16    2.0440E+02   1.3053E+03   1.0000E-04   1.0000E+00   1.0000E-03
       1    140    152       3       17    2.1133E+02   1.3053E+03   1.0000E-04   1.0000E+00   1.0000E-03
       1    141    152       3       18    1.3065E+02   1.3053E+03   1.0000E-04   1.0000E+00   1.0000E-03
       1    141    153       3       19    9.5284E+01   1.3053E+03   1.0000E-04   1.0000E+00   1.0000E-03
       1    142    153       3       20    2.1083E+02   1.3053E+03   1.0000E-04   1.0000E+00   1.0000E-03
       1    142    154       3       21    9.6977E+01   1.3053E+03   1.0000E-04   1.0000E+00   1.0000E-03
       1    143    154       3       22    1.8390E+02   1.3053E+03   1.0000E-04   1.0000E+00   1.0000E-03
       1    143    155       3       23    7.1759E+01   1.3053E+03   1.0000E-04   1.0000E+00   1.0000E-03
       1    144    155       3       24    2.0601E+02   1.3053E+03   1.0000E-04   1.0000E+00   1.0000E-03
       1    145    155       3       25    1.7666E+02   1.3053E+03   1.0000E-04   1.0000E+00   1.0000E-03
       1    145    154       3       26    6.2267E+01   1.3053E+03   1.0000E-04   1.0000E+00   1.0000E-03
       1    146    154       3       27    1.8557E+02   1.3053E+03   1.0000E-04   1.0000E+00   1.0000E-03
       1    146    153       3       28    2.2619E+02   1.3053E+03   1.0000E-04   1.0000E+00   1.0000E-03
       1    146    152       3       29    1.7330E+00   1.3053E+03   1.6730E-03   1.0000E+00   1.0000E-03
       1    147    152       3       30    2.7722E+02   1.3053E+03   1.0000E-04   1.0000E+00   1.0000E-03
       1    147    151       3       31    1.7902E+01   1.3053E+03   1.2900E-04   1.0000E+00   1.0000E-03
       1    148    151       3       32    2.0518E+02   1.3053E+03   1.0000E-04   1.0000E+00   1.0000E-03
       1    148    152       3       33    1.8184E+01   1.3052E+03   1.4700E-04   1.0000E+00   1.0000E-03
       1    149    152       3       34    2.3979E+02   1.3052E+03   1.0000E-04   1.0000E+00   1.0000E-03
       1    149    153       3       35    7.1159E+01   1.3052E+03   1.0000E-04   1.0000E+00   1.0000E-03
       1    150    153       3       36    2.0776E+02   1.3052E+03   1.0000E-04   1.0000E+00   1.0000E-03
       1    150    154       3       37    9.1306E+01   1.3052E+03   1.0000E-04   1.0000E+00   1.0000E-03
       1    151    154       3       38    1.6367E+02   1.3052E+03   1.0000E-04   1.0000E+00   1.0000E-03
       1    151    155       3       39    1.3472E+02   1.3052E+03   1.0000E-04   1.0000E+00   1.0000E-03
       1    152    155       3       40    1.4068E+02   1.3052E+03   1.0000E-04   1.0000E+00   1.0000E-03
       1    152    156       3       41    2.2469E+02   1.3052E+03   1.0000E-04   1.0000E+00   1.0000E-03
       1    152    157       3       42    2.0638E+02   1.3052E+03   1.0000E-04   1.0000E+00   1.0000E-03
       1    152    158       3       43    2.5928E+02   1.3052E+03   1.0000E-04   1.0000E+00   1.0000E-03
       1    151    158       3       44    1.0297E+01   1.3052E+03   2.4100E-04   1.0000E+00   1.0000E-03
       1    151    159       3       45    2.2824E+02   1.3052E+03   1.0000E-04   1.0000E+00   1.0000E-03
       1    151    160       3       46    2.0030E+02   1.3052E+03   1.0000E-04   1.0000E+00   1.0000E-03
       1    151    161       3       47    1.2249E+02   1.3052E+03   1.0000E-04   1.0000E+00   1.0000E-03
       1    152    161       3       48    1.8818E+02   1.3052E+03   1.0000E-04   1.0000E+00   1.0000E-03
       1    152    162       3       49    6.4295E+01   1.3052E+03   1.0000E-04   1.0000E+00   1.0000E-03
       1    153    162       3       50    2.2273E+02   1.3052E+03   1.0000E-04   1.0000E+00   1.0000E-03
       1    154    162       3       51    1.1652E+02   1.3052E+03   1.0000E-04   1.0000E+00   1.0000E-03
       1    154    163       3       52    1.2600E+02   1.3052E+03   1.0000E-04   1.0000E+00   1.0000E-03
       1    155    163       3       53    2.3090E+02   1.3052E+03   1.0000E-04   1.0000E+00   1.0000E-03
       1    156    163       3       54    2.7552E+01   1.3052E+03   1.0000E-04   1.0000E+00   1.0000E-03
       1    156    164       3       55    1.7858E+02   1.3052E+03   1.0000E-04   1.0000E+00   1.0000E-03
       1    157    164       3       56    7.7693E+00   1.3052E+03   3.5900E-04   1.0000E+00   1.0000E-03
       1    157    163       3       57    2.6059E+02   1.3052E+03   1.0000E-04   1.0000E+00   1.0000E-03
       1    157    162       3       58    2.0292E+02   1.3052E+03   1.0000E-04   1.0000E+00   1.0000E-03
       1    157    161       3       59    6.5801E+01   1.3052E+03   1.0000E-04   1.0000E+00   1.0000E-03
       1    158    161       3       60    1.3571E+02   1.3052E+03   1.0000E-04   1.0000E+00   1.0000E-03
       1    158    160       3       61    2.9777E+02   1.3052E+03   1.0000E-04   1.0000E+00   1.0000E-03
       1    159    160       3       62    3.8957E+01   1.3052E+03   1.0000E-04   1.0000E+00   1.0000E-03
       1    159    161       3       63    2.2632E+02   1.3052E+03   1.0000E-04   1.0000E+00   1.0000E-03
       1    159    162       3       64    2.0397E+02   1.3051E+03   1.0000E-04   1.0000E+00   1.0000E-03
       1    159    163       3       65    1.7328E+02   1.3051E+03   1.0000E-04   1.0000E+00   1.0000E-03
       1    160    163       3       66    3.4601E+01   1.3051E+03   1.0000E-04   1.0000E+00   1.0000E-03
       1    160    164       3       67    2.2610E+02   1.3051E+03   1.0000E-04   1.0000E+00   1.0000E-03
       1    160    165       3       68    1.3576E+02   1.3051E+03   1.0000E-04   1.0000E+00   1.0000E-03
       1    161    165       3       69    1.0931E+02   1.3051E+03   1.0000E-04   1.0000E+00   1.0000E-03
       1    161    166       3       70    1.8302E+02   1.3051E+03   1.0000E-04   1.0000E+00   1.0000E-03
       1    162    166       3       71    2.0210E+02   1.3051E+03   1.0000E-04   1.0000E+00   1.0000E-03
       1    162    167       3       72    2.0680E+01   1.3051E+03   1.4500E-04   1.0000E+00   1.0000E-03
       1    163    167       3       73    2.2010E+02   1.3051E+03   1.0000E-04   1.0000E+00   1.0000E-03
       1    164    167       4        1    1.4769E+02   1.3051E+03   1.0000E-04   1.0000E+00   1.0000E-03
       1    164    168       4        2    2.0353E+02   1.3051E+03   1.0000E-04   1.0000E+00   1.0000E-03
       1    164    169       4        3    2.0353E+02   1.3051E+03   1.0000E-04   1.0000E+00   1.0000E-03
       1    164    170       4        4    2.0201E+02   1.3051E+03   1.0000E-04   1.0000E+00   1.0000E-03
       1    164    171       4        5    8.3026E+00   1.3051E+03   3.0200E-04   1.0000E+00   1.0000E-03
       1    165    171       4        6    1.9268E+02   1.3051E+03   1.0000E-04   1.0000E+00   1.0000E-03
       1    165    172       4        7    2.0099E+02   1.3051E+03   1.0000E-04   1.0000E+00   1.0000E-03
       1    165    173       4        8    2.0099E+02   1.3051E+03   1.0000E-04   1.0000E+00   1.0000E-03
       1    165    174       4        9    2.0099E+02   1.3051E+03   1.0000E-04   1.0000E+00   1.0000E-03
       1    165    175       4       10    2.1468E+02   1.3051E+03   1.0000E-04   1.0000E+00   1.0000E-03
       1    165    176       4       11    8.9667E+01   1.3051E+03   3.7438E-02   1.0000E+00   1.0000E-03
       1    166    176       4       12    1.3709E+02   1.3017E+03   3.6714E-02   1.0000E+00   1.0000E-03
       1    166    177       4       13    2.0287E+02   1.2967E+03   1.5320E-03   1.0000E+00   1.0000E-03
       1    166    178       4       14    2.0076E+02   1.2964E+03   1.5400E-03   1.0000E+00   1.0000E-03
       1    166    179       4       15    2.0080E+02   1.2961E+03   2.5900E-03   1.0000E+00   1.0000E-03
       1    166    180       4       16    2.0856E+02   1.2955E+03   1.0000E-04   1.0000E+00   1.0000E-03
       1    166    181       4       17    2.0348E+02   1.2955E+03   1.0000E-04   1.0000E+00   1.0000E-03
       1    165    181       4       18    2.9579E+01   1.2955E+03   1.0000E-04   1.0000E+00   1.0000E-03
       1    165    182       4       19    2.6046E+02   1.2955E+03   1.0000E-04   1.0000E+00   1.0000E-03
       1    164    182       4       20    1.5705E+01   1.2955E+03   1.0000E-04   1.0000E+00   1.0000E-03
       1    164    183       4       21    2.6032E+02   1.2955E+03   1.0000E-04   1.0000E+00   1.0000E-03
       1    164    184       4       22    2.0107E+02   1.2955E+03   1.0000E-04   1.0000E+00   1.0000E-03
       1    163    184       4       23    2.2287E+01   1.2955E+03   1.0000E-04   1.0000E+00   1.0000E-03
       1    164    185       4       24    2.1207E+02   1.2955E+03   1.0000E-04   1.0000E+00   1.0000E-03
       1    165    185       4       25    2.1057E+02   1.2955E+03   1.0000E-04   1.0000E+00   1.0000E-03
       1    166    185       4       26    1.3481E+02   1.2955E+03   1.0000E-04   1.0000E+00   1.0000E-03
       1    166    184       4       27    1.2809E+02   1.2955E+03   1.0000E-04   1.0000E+00   1.0000E-03
       1    167    184       4       28    2.0999E+02   1.2955E+03   1.0000E-04   1.0000E+00   1.0000E-03
       1    168    184       4       29    2.3067E+02   1.2955E+03   1.0000E-04   1.0000E+00   1.0000E-03
       1    169    184       4       30    7.1177E+01   1.2955E+03   1.0000E-04   1.0000E+00   1.0000E-03
       1    169    185       4       31    2.1631E+02   1.2955E+03   1.0000E-04   1.0000E+00   1.0000E-03
       1    169    186       4       32    2.0427E+02   1.2955E+03   1.0000E-04   1.0000E+00   1.0000E-03
       1    169    187       4       33    2.0674E+02   1.2955E+03   1.0000E-04   1.0000E+00   1.0000E-03
       1    169    188       4       34    7.6694E+01   1.2955E+03   1.0000E-04   1.0000E+00   1.0000E-03
       1    168    188       4       35    1.2834E+02   1.2955E+03   1.0000E-04   1.0000E+00   1.0000E-03
       1    168    189       4       36    1.7044E+01   1.2955E+03   1.0000E-04   1.0000E+00   1.0000E-03
       1    169    189       4       37    1.9314E+02   1.2955E+03   1.0000E-04   1.0000E+00   1.0000E-03
       1    169    190       4       38    2.3280E+02   1.2955E+03   1.0000E-04   1.0000E+00   1.0000E-03
       1    169    191       4       39    4.8977E+01   1.2955E+03   1.0000E-04   1.0000E+00   1.0000E-03
       1    170    191       4       40    2.2252E+02   1.2955E+03   1.0000E-04   1.0000E+00   1.0000E-03
       1    170    192       4       41    6.2566E+01   1.2955E+03   1.0000E-04   1.0000E+00   1.0000E-03
       1    171    192       4       42    2.3284E+02   1.2955E+03   1.0000E-04   1.0000E+00   1.0000E-03
       1    172    192       4       43    2.0001E+02   1.2955E+03   1.0000E-04   1.0000E+00   1.0000E-03
       1    173    192       4       44    2.1743E+02   1.2955E+03   1.0000E-04   1.0000E+00   1.0000E-03
       1    174    192       4       45    1.6621E+02   1.2955E+03   1.0000E-04   1.0000E+00   1.0000E-03
       1    174    191       4       46    5.5637E+01   1.2955E+03   1.0000E-04   1.0000E+00   1.0000E-03
       1    175    191       4       47    2.0014E+02   1.2955E+03   1.0000E-04   1.0000E+00   1.0000E-03
       1    176    191       4       48    1.6218E+02   1.2955E+03   1.0000E-04   1.0000E+00   1.0000E-03
       1    176    192       4       49    3.8668E+01   1.2955E+03   1.0000E-04   1.0000E+00   1.0000E-03
       1    177    192       4       50    2.0124E+02   1.2955E+03   1.0000E-04   1.0000E+00   1.0000E-03
       1    178    192       4       51    2.0220E+02   1.2955E+03   1.0000E-04   1.0000E+00   1.0000E-03
       1    179    192       4       52    2.0539E+02   1.2955E+03   1.0000E-04   1.0000E+00   1.0000E-03
       1    180    192       4       53    2.0038E+02   1.2955E+03   1.0000E-04   1.0000E+00   1.0000E-03
       1    181    192       4       54    2.0007E+02   1.2955E+03   1.0000E-04   1.0000E+00   1.0000E-03
       1    182    192       4       55    1.9185E+02   1.2955E+03   1.0000E-04   1.0000E+00   1.0000E-03
       1    182    193       4       56    1.1189E+02   1.2955E+03   1.0000E-04   1.0000E+00   1.0000E-03
       1    183    193       4       57    1.0960E+02   1.2955E+03   1.0000E-04   1.0000E+00   1.0000E-03
       1    183    194       4       58    2.2149E+02   1.2955E+03   1.0000E-04   1.0000E+00   1.0000E-03
       1    183    195       4       59    1.3433E+02   1.2955E+03   1.0000E-04   1.0000E+00   1.0000E-03
       1    184    195       4       60    8.7168E+01   1.2955E+03   1.0000E-04   1.0000E+00   1.0000E-03
       1    184    196       4       61    2.2149E+02   1.2955E+03   1.0000E-04   1.0000E+00   1.0000E-03
       1    184    197       4       62    2.2739E+02   1.2955E+03   1.0000E-04   1.0000E+00   1.0000E-03
       1    184    198       4       63    1.8430E+02   1.2955E+03   1.0000E-04   1.0000E+00   1.0000E-03
       1    183    198       4       64    5.8149E+01   1.2955E+03   1.0000E-04   1.0000E+00   1.0000E-03
       1    183    199       4       65    2.2170E+02   1.2955E+03   1.0000E-04   1.0000E+00   1.0000E-03
       1    183    200       4       66    2.4054E+02   1.2955E+03   1.0000E-04   1.0000E+00   1.0000E-03
       1    184    200       4       67    2.0324E+02   1.2955E+03   1.0000E-04   1.0000E+00   1.0000E-03
       1    185    200       4       68    2.0424E+02   1.2955E+03   1.0000E-04   1.0000E+00   1.0000E-03
       1    186    200       4       69    2.0438E+02   1.2955E+03   1.0000E-04   1.0000E+00   1.0000E-03
       1    187    200       4       70    2.0001E+02   1.2955E+03   1.0000E-04   1.0000E+00   1.0000E-03
       1    188    200       4       71    1.6247E+02   1.2955E+03   1.0000E-04   1.0000E+00   1.0000E-03
       1    188    201       4       72    1.0925E+02   1.2955E+03   1.0000E-04   1.0000E+00   1.0000E-03
       1    189    201       4       73    1.2387E+02   1.2955E+03   1.0000E-04   1.0000E+00   1.0000E-03
       1    189    202       4       74    2.1212E+02   1.2955E+03   1.0000E-04   1.0000E+00   1.0000E-03
       1    189    203       4       75    2.0254E+02   1.2955E+03   1.0000E-04   1.0000E+00   1.0000E-03
       1    189    204       4       76    2.2384E+02   1.2955E+03   1.0000E-04   1.0000E+00   1.0000E-03
       1    189    205       4       77    1.1891E+02   1.2955E+03   1.0000E-04   1.0000E+00   1.0000E-03
       1    188    205       4       78    2.1275E+02   1.2955E+03   1.0000E-04   1.0000E+00   1.0000E-03
       1    188    206       4       79    9.8306E+01   1.2955E+03   1.0000E-04   1.0000E+00   1.0000E-03
       1    187    206       4       80    1.1193E+02   1.2955E+03   1.0000E-04   1.0000E+00   1.0000E-03
       1    187    207       4       81    2.0176E+02   1.2955E+03   1.0000E-04   1.0000E+00   1.0000E-03
       1    187    208       4       82    2.0597E+02   1.2955E+03   1.0000E-04   1.0000E+00   1.0000E-03
       1    187    209       4       83    1.2591E+02   1.2954E+03   1.0000E-04   1.0000E+00   1.0000E-03
       1    188    209       4       84    8.5388E+01   1.2954E+03   1.0000E-04   1.0000E+00   1.0000E-03
       1    188    210       4       85    1.4269E+02   1.2954E+03   1.0000E-04   1.0000E+00   1.0000E-03
       1    187    210       4       86    6.8161E+01   1.2954E+03   1.0000E-04   1.0000E+00   1.0000E-03
       1    187    211       4       87    2.3284E+02   1.2954E+03   1.0000E-04   1.0000E+00   1.0000E-03
       1    187    212       4       88    8.8799E+01   1.2954E+03   1.0000E-04   1.0000E+00   1.0000E-03
       1    186    212       4       89    1.3953E+02   1.2954E+03   1.0000E-04   1.0000E+00   1.0000E-03
       1    186    213       4       90    2.1083E+02   1.2954E+03   1.0000E-04   1.0000E+00   1.0000E-03
       1    186    214       4       91    2.1259E+02   1.2954E+03   1.0000E-04   1.0000E+00   1.0000E-03
       1    186    215       4       92    6.3306E+00   1.2954E+03   2.2500E-04   1.0000E+00   1.0000E-03
       1    185    215       4       93    2.3521E+02   1.2954E+03   1.0000E-04   1.0000E+00   1.0000E-03
       1    185    216       4       94    9.1950E+01   1.2954E+03   1.0000E-04   1.0000E+00   1.0000E-03
       1    184    216       4       95    2.3096E+02   1.2954E+03   1.0000E-04   1.0000E+00   1.0000E-03
       1    183    216       4       96    1.8639E+02   1.2954E+03   1.0000E-04   1.0000E+00   1.0000E-03
       1    183    217       4       97    3.2434E+01   1.2954E+03   1.0000E-04   1.0000E+00   1.0000E-03
       1    182    217       4       98    2.6758E+02   1.2954E+03   1.0000E-04   1.0000E+00   1.0000E-03
       1    181    217       4       99    1.7561E+01   1.2954E+03   1.0000E-04   1.0000E+00   1.0000E-03
       1    181    218       4      100    2.5739E+02   1.2954E+03   1.0000E-04   1.0000E+00   1.0000E-03
       1    181    219       4      101    7.5170E+01   1.2954E+03   1.0000E-04   1.0000E+00   1.0000E-03
       1    180    219       4      102    1.4018E+02   1.2954E+03   1.0000E-04   1.0000E+00   1.0000E-03
       1    180    220       4      103    2.1052E+02   1.2954E+03   1.0000E-04   1.0000E+00   1.0000E-03
       1    180    221       4      104    2.0748E+02   1.2954E+03   1.0000E-04   1.0000E+00   1.0000E-03
       1    180    222       4      105    1.7963E+02   1.2954E+03   1.0000E-04   1.0000E+00   1.0000E-03
       1    179    222       4      106    2.3937E+01   1.2954E+03   1.1280E-03   1.0000E+00   1.0000E-03
       1    179    223       4      107    2.0212E+02   1.2954E+03   1.5400E-04   1.0000E+00   1.0000E-03
       1    179    224       4      108    5.7879E+01   1.2954E+03   4.1500E-04   1.0000E+00   1.0000E-03
       1    180    224       4      109    1.4329E+02   1.2953E+03   2.8700E-04   1.0000E+00   1.0000E-03
       1    180    225       4      110    2.0034E+02   1.2953E+03   1.8600E-04   1.0000E+00   1.0000E-03
       1    180    226       4      111    1.1199E+02   1.2952E+03   2.2200E-04   1.0000E+00   1.0000E-03
       1    179    226       4      112    9.6046E+01   1.2952E+03   3.7500E-04   1.0000E+00   1.0000E-03
       1    179    227       4      113    2.0572E+02   1.2952E+03   1.9000E-04   1.0000E+00   1.0000E-03
       1    179    228       4      114    1.2151E+02   1.2951E+03   3.1900E-04   1.0000E+00   1.0000E-03
       1    180    228       5        1    2.0256E+02   1.2951E+03   2.3900E-04   1.0000E+00   1.0000E-04
       1    181    228       5        2    2.0193E+02   1.2951E+03   2.4100E-04   1.0000E+00   1.0000E-04
       1    182    228       5        3    2.0479E+02   1.2950E+03   2.3700E-04   1.0000E+00   1.0000E-04
       1    183    228       5        4    2.0116E+02   1.2950E+03   2.3800E-04   1.0000E+00   1.0000E-04
       1    184    228       5        5    2.0004E+02   1.2949E+03   1.4400E-04   1.0000E+00   1.0000E-04
       1    185    228       5        6    4.0689E+01   1.2949E+03   5.8700E-04   1.0000E+00   1.0000E-04
       1    185    229       5        7    1.5935E+02   1.2949E+03   2.4800E-04   1.0000E+00   1.0000E-04
       1    186    229       5        8    1.7194E+02   1.2948E+03   1.4000E-04   1.0000E+00   1.0000E-04
       1    186    228       5        9    2.9084E+01   1.2948E+03   9.5500E-04   1.0000E+00   1.0000E-04
       1    187    228       5       10    2.0324E+02   1.2948E+03   2.4000E-04   1.0000E+00   1.0000E-04
       1    188    228       5       11    2.0486E+02   1.2947E+03   2.4600E-04   1.0000E+00   1.0000E-04
       1    189    228       5       12    2.1642E+02   1.2947E+03   2.5000E-04   1.0000E+00   1.0000E-04
       1    190    228       5       13    2.3560E+02   1.2946E+03   1.8700E-04   1.0000E+00   1.0000E-04
       1    191    228       5       14    1.3366E+02   1.2946E+03   2.8600E-04   1.0000E+00   1.0000E-04
       1    191    229       5       15    1.8652E+02   1.2945E+03   1.4200E-04   1.0000E+00   1.0000E-04
       1    190    229       5       16    3.4697E+01   1.2945E+03   1.0610E-03   1.0000E+00   1.0000E-04
       1    190    230       5       17    2.7340E+02   1.2945E+03   1.2300E-04   1.0000E+00   1.0000E-04
       1    189    230       5       18    7.4336E+00   1.2944E+03   3.6550E-03   1.0000E+00   1.0000E-04
       1    189    231       5       19    2.1994E+02   1.2944E+03   2.3300E-04   1.0000E+00   1.0000E-04
       1    188    231       5       20    2.0845E+02   1.2944E+03   1.8600E-04   1.0000E+00   1.0000E-04
       1    187    231       5       21    1.1643E+02   1.2943E+03   2.4700E-04   1.0000E+00   1.0000E-04
       2    187    232       5       22    1.2401E+02   1.2943E+03   2.5400E-04   1.0000E+00   1.0000E-04
       2    186    232       5       23    1.3994E+02   1.2943E+03   3.0200E-04   1.0000E+00   1.0000E-04
       2    186    233       5       24    2.1332E+02   1.2942E+03   1.6300E-04   1.0000E+00   1.0000E-04
[...]
          0                 8           4           193  235     2      -0.6635438140E-02     193  235    2      -0.4877691061E+02      0.4895762725E+02      0.7936884541E+02     -0.6635438140E-02
          0                 9           3           193  235     2      -0.4011691058E-02     193  235    2      -0.2954661617E+02      0.2965693102E+02      0.4895762725E+02     -0.4011691058E-02
          0                10           3           193  235     2      -0.2412980243E-02     193  235    2      -0.1759270807E+02      0.1766080208E+02      0.2965693102E+02     -0.2412980243E-02

    ------------------------------------------------
       NWT REQUIRED           10 OUTER ITERATIONS 
       AND A TOTAL OF         88 INNER ITERATIONS.
    ------------------------------------------------

 NO OUTPUT CONTROL FOR STRESS PERIOD    2   TIME STEP    7
 
 WELLS WITH REDUCED PUMPING FOR STRESS PERIOD     2 TIME STEP     7
   LAY   ROW   COL         APPL.Q          ACT.Q        GW-HEAD       CELL-BOT
     2   314    82  -0.231552E+04  -0.147967E+04   0.129286E+04   0.129170E+04
     2   315    82  -0.231552E+04  -0.116579E+04   0.129267E+04   0.129170E+04
 
 
 SOLVING FOR HEAD 
                                                   Max.-Head-Change                        Max.-Flux-Residual
  Residual-Control   Outer-Iter.   Inner-Iter.     Column Row Layer    Max.-Head-Change    Column Row Layer    Max.-Flux-Residual            L2-New               L2-Old           Solver-Max-Delh
          0                 1          30           232  367     4       0.2984946999E+00     270  367    4       0.7587693847E+04      0.5651869839E+05      0.1766080208E+02      0.2984946999E+00
          0                 2          10           192  235     2      -0.6182752954E-01     192  235    2      -0.2405328186E+03      0.3515831721E+03      0.5651869839E+05     -0.6182752954E-01
          0                 3           9           192  235     2      -0.6813533711E-01     192  235    2      -0.3794085611E+03      0.3821216481E+03      0.3515831721E+03     -0.6813533711E-01
          0                 4           8           192  235     2      -0.5206862919E-01     192  235    2      -0.2878495890E+03      0.2891417513E+03      0.3821216481E+03     -0.5206862919E-01
          0                 5           6           192  235     2      -0.3689553977E-01     192  235    2      -0.2038046531E+03      0.2045191556E+03      0.2891417513E+03     -0.3689553977E-01
          0                 6           6           192  235     2      -0.2475646072E-01     192  235    2      -0.1364513192E+03      0.1368740219E+03      0.2045191556E+03     -0.2475646072E-01
          0                 7           5           192  235     2      -0.1612616136E-01     192  235    2      -0.8887300088E+02      0.8913767830E+02      0.1368740219E+03     -0.1612616136E-01
          0                 8           4           192  235     2      -0.1026275318E-01     192  235    2      -0.5655843519E+02      0.5672305211E+02      0.8913767830E+02     -0.1026275318E-01
          0                 9           3           192  235     2      -0.6428881758E-02     192  235    2      -0.3544907981E+02      0.3555332897E+02      0.5672305211E+02     -0.6428881758E-02
          0                10           3           192  235     2      -0.3992931862E-02     192  235    2      -0.2189907211E+02      0.2196413380E+02      0.3555332897E+02     -0.3992931862E-02
          0                11           3           192  235     2      -0.2517069149E-02     192  235    2      -0.1378529878E+02      0.1382970155E+02      0.2196413380E+02     -0.2517069149E-02

    ------------------------------------------------
       NWT REQUIRED           11 OUTER ITERATIONS 
       AND A TOTAL OF         87 INNER ITERATIONS.
    ------------------------------------------------

 NO OUTPUT CONTROL FOR STRESS PERIOD    2   TIME STEP    8
 
 WELLS WITH REDUCED PUMPING FOR STRESS PERIOD     2 TIME STEP     8
   LAY   ROW   COL         APPL.Q          ACT.Q        GW-HEAD       CELL-BOT
     2   314    82  -0.231552E+04  -0.146618E+04   0.129285E+04   0.129170E+04
     2   315    82  -0.231552E+04  -0.115292E+04   0.129267E+04   0.129170E+04
 
 
 SOLVING FOR HEAD 
                                                   Max.-Head-Change                        Max.-Flux-Residual
  Residual-Control   Outer-Iter.   Inner-Iter.     Column Row Layer    Max.-Head-Change    Column Row Layer    Max.-Flux-Residual            L2-New               L2-Old           Solver-Max-Delh
          0                 1          32           232  367     4       0.2986651393E+00     270  367    4       0.7591185849E+04      0.5651959334E+05      0.1382970155E+02      0.2986651393E+00
          0                 2           9           192  234     2      -0.6005472387E-01     192  234    2      -0.4020910967E+03      0.4169206077E+03      0.5651959334E+05     -0.6005472387E-01
          0                 3           9           192  234     2      -0.5417852637E-01     192  234    2      -0.3808078139E+03      0.3848649304E+03      0.4169206077E+03     -0.5417852637E-01
          0                 4           9           191  234     2      -0.5927922449E-01     191  234    2      -0.2299507091E+03      0.2497546165E+03      0.3848649304E+03     -0.5927922449E-01
          0                 5           7           191  234     2      -0.3492497829E-01     191  234    2      -0.1647168976E+03      0.1654275729E+03      0.2497546165E+03     -0.3492497829E-01
          0                 6           6           191  234     2      -0.2100365428E-01     191  234    2      -0.9831806932E+02      0.9874418990E+02      0.1654275729E+03     -0.2100365428E-01
          0                 7           5           191  234     2      -0.1118777084E-01     191  234    2      -0.5146820563E+02      0.5167975024E+02      0.9874418990E+02     -0.1118777084E-01
          0                 8           3           191  234     2      -0.6112015641E-02     191  234    2      -0.2829099191E+02      0.2840824582E+02      0.5167975024E+02     -0.6112015641E-02
          0                 9           3           191  234     2      -0.3262410476E-02     191  234    2      -0.1489571343E+02      0.1495806576E+02      0.2840824582E+02     -0.3262410476E-02
          0                10           2           191  234     2      -0.1763337104E-02     191  234    2      -0.8187668063E+01      0.8229531284E+01      0.1495806576E+02     -0.1763337104E-02

    ------------------------------------------------
       NWT REQUIRED           10 OUTER ITERATIONS 
       AND A TOTAL OF         85 INNER ITERATIONS.
    ------------------------------------------------

 NO OUTPUT CONTROL FOR STRESS PERIOD    2   TIME STEP    9
 
 WELLS WITH REDUCED PUMPING FOR STRESS PERIOD     2 TIME STEP     9
   LAY   ROW   COL         APPL.Q          ACT.Q        GW-HEAD       CELL-BOT
     2   314    82  -0.231552E+04  -0.145300E+04   0.129285E+04   0.129170E+04
     2   315    82  -0.231552E+04  -0.114037E+04   0.129266E+04   0.129170E+04
 
 
 SOLVING FOR HEAD 
                                                   Max.-Head-Change                        Max.-Flux-Residual
  Residual-Control   Outer-Iter.   Inner-Iter.     Column Row Layer    Max.-Head-Change    Column Row Layer    Max.-Flux-Residual            L2-New               L2-Old           Solver-Max-Delh
          0                 1          35           232  367     4       0.2987481558E+00     270  367    4       0.7591179363E+04      0.5652067816E+05      0.8229531284E+01      0.2987481558E+00
          0                 2          10           191  234     2      -0.7920884827E-01     191  234    2      -0.3623352161E+03      0.3757794339E+03      0.5652067816E+05     -0.7920884827E-01
          0                 3           9           191  234     2      -0.6307923167E-01     191  234    2      -0.2919683020E+03      0.2955871533E+03      0.3757794339E+03     -0.6307923167E-01
          0                 4           8           191  234     2      -0.4331058913E-01     191  234    2      -0.1988609984E+03      0.2005979709E+03      0.2955871533E+03     -0.4331058913E-01
          0                 5           6           191  234     2      -0.2724742527E-01     191  234    2      -0.1249494346E+03      0.1259072818E+03      0.2005979709E+03     -0.2724742527E-01
          0                 6           6           191  234     2      -0.1626579977E-01     191  234    2      -0.7432686769E+02      0.7485937985E+02      0.1259072818E+03     -0.1626579977E-01
          0                 7           4           191  234     2      -0.9104130372E-02     191  234    2      -0.3881994639E+02      0.3950008146E+02      0.7485937985E+02     -0.9104130372E-02
          0                 8           3           191  233     2      -0.3567339912E-02     191  233    2      -0.2364564250E+02      0.2383329691E+02      0.3950008146E+02     -0.3567339912E-02
          0                 9           3           191  233     2      -0.2386561826E-02     191  233    2      -0.1571483423E+02      0.1582935424E+02      0.2383329691E+02     -0.2386561826E-02

    ------------------------------------------------
       NWT REQUIRED            9 OUTER ITERATIONS 
       AND A TOTAL OF         84 INNER ITERATIONS.
    ------------------------------------------------

 NO OUTPUT CONTROL FOR STRESS PERIOD    2   TIME STEP   10
 
 WELLS WITH REDUCED PUMPING FOR STRESS PERIOD     2 TIME STEP    10
   LAY   ROW   COL         APPL.Q          ACT.Q        GW-HEAD       CELL-BOT
     2   314    82  -0.231552E+04  -0.144018E+04   0.129284E+04   0.129170E+04
     2   315    82  -0.231552E+04  -0.112818E+04   0.129265E+04   0.129170E+04
 
 
 SOLVING FOR HEAD 
                                                   Max.-Head-Change                        Max.-Flux-Residual
  Residual-Control   Outer-Iter.   Inner-Iter.     Column Row Layer    Max.-Head-Change    Column Row Layer    Max.-Flux-Residual            L2-New               L2-Old           Solver-Max-Delh
          0                 1          35           232  367     4       0.2988122283E+00     270  367    4       0.7587681814E+04      0.5651689978E+05      0.1582935424E+02      0.2988122283E+00
          0                 2          10           190  233     2      -0.6292080636E-01     191  233    2      -0.2381549177E+03      0.2940470218E+03      0.5651689978E+05     -0.6292080636E-01
          0                 3           9           190  233     2      -0.6805386509E-01     190  233    2      -0.2782559973E+03      0.2813206563E+03      0.2940470218E+03     -0.6805386509E-01
          0                 4           8           190  233     2      -0.5259697109E-01     190  233    2      -0.2112415275E+03      0.2124109253E+03      0.2813206563E+03     -0.5259697109E-01
          0                 5           7           190  233     2      -0.3369479889E-01     190  233    2      -0.1339362473E+03      0.1346209356E+03      0.2124109253E+03     -0.3369479889E-01
          0                 6           5           190  233     2      -0.2130603245E-01     190  233    2      -0.8457030731E+02      0.8495423004E+02      0.1346209356E+03     -0.2130603245E-01
          0                 7           5           190  233     2      -0.1297737030E-01     190  233    2      -0.5136760659E+02      0.5157600440E+02      0.8495423004E+02     -0.1297737030E-01
          0                 8           4           190  233     2      -0.7781711674E-02     190  233    2      -0.3086752035E+02      0.3099426111E+02      0.5157600440E+02     -0.7781711674E-02
          0                 9           3           190  233     2      -0.4579445262E-02     190  233    2      -0.1818320301E+02      0.1825799820E+02      0.3099426111E+02     -0.4579445262E-02
          0                10           3           190  233     2      -0.2674114743E-02     190  233    2      -0.1053585725E+02      0.1058149334E+02      0.1825799820E+02     -0.2674114743E-02

    ------------------------------------------------
       NWT REQUIRED           10 OUTER ITERATIONS 
       AND A TOTAL OF         89 INNER ITERATIONS.
    ------------------------------------------------

 NO OUTPUT CONTROL FOR STRESS PERIOD    2   TIME STEP   11
 
 WELLS WITH REDUCED PUMPING FOR STRESS PERIOD     2 TIME STEP    11
   LAY   ROW   COL         APPL.Q          ACT.Q        GW-HEAD       CELL-BOT
     2   314    82  -0.231552E+04  -0.142774E+04   0.129283E+04   0.129170E+04
     2   315    82  -0.231552E+04  -0.111637E+04   0.129265E+04   0.129170E+04
 
 
 SOLVING FOR HEAD 
                                                   Max.-Head-Change                        Max.-Flux-Residual
  Residual-Control   Outer-Iter.   Inner-Iter.     Column Row Layer    Max.-Head-Change    Column Row Layer    Max.-Flux-Residual            L2-New               L2-Old           Solver-Max-Delh
          0                 1          39           232  367     4       0.2988798089E+00     270  367    4       0.7591180177E+04      0.5652114031E+05      0.1058149334E+02      0.2988798089E+00
          0                 2           9           190  232     2      -0.5575514642E-01     190  232    2      -0.2418431870E+03      0.2727130476E+03      0.5652114031E+05     -0.5575514642E-01
          0                 3           9           190  232     2      -0.4872572641E-01     190  232    2      -0.2556586749E+03      0.2608552629E+03      0.2727130476E+03     -0.4872572641E-01
          0                 4           9           190  232     2      -0.4272559743E-01     190  232    2      -0.1762920932E+03      0.1832090355E+03      0.2608552629E+03     -0.4272559743E-01
          0                 5           7           189  232     1      -0.5487421201E-01     189  232    1      -0.1220386648E+03      0.1231323762E+03      0.1832090355E+03     -0.5487421201E-01
          0                 6           6           189  232     1      -0.3874397472E-01     189  232    1      -0.8549974768E+02      0.8605097250E+02      0.1231323762E+03     -0.3874397472E-01
          0                 7           6           189  232     1      -0.2529572031E-01     189  232    1      -0.5541228410E+02      0.5572586671E+02      0.8605097250E+02     -0.2529572031E-01
          0                 8           4           189  232     1      -0.1670029181E-01     189  232    1      -0.3649257651E+02      0.3670417539E+02      0.5572586671E+02     -0.1670029181E-01
          0                 9           4           189  232     1      -0.1028762262E-01     189  232    1      -0.2215701122E+02      0.2227660555E+02      0.3670417539E+02     -0.1028762262E-01
          0                10           3           189  232     1      -0.6521366022E-02     189  232    1      -0.1423536031E+02      0.1432163213E+02      0.2227660555E+02     -0.6521366022E-02
                                                   Max.-Head-Change                        Max.-Flux-Residual
  Residual-Control   Outer-Iter.   Inner-Iter.     Column Row Layer    Max.-Head-Change    Column Row Layer    Max.-Flux-Residual            L2-New               L2-Old           Solver-Max-Delh
          0                11           3           189  232     1      -0.3912139202E-02     189  232    1      -0.8365144040E+01      0.8411809812E+01      0.1432163213E+02     -0.3912139202E-02
          0                12           4           189  232     1      -0.2600852605E-02     189  232    1      -0.5668405172E+01      0.5717274011E+01      0.8411809812E+01     -0.2600852605E-02

    ------------------------------------------------
       NWT REQUIRED           12 OUTER ITERATIONS 
       AND A TOTAL OF        103 INNER ITERATIONS.
    ------------------------------------------------

 OUTPUT CONTROL FOR STRESS PERIOD    2   TIME STEP   12
    PRINT BUDGET
    SAVE HEAD FOR ALL LAYERS
    SAVE BUDGET
 UBUDSV SAVING "         STORAGE" ON UNIT 50 AT TIME STEP 12, STRESS PERIOD    2
 UBUDSV SAVING "   CONSTANT HEAD" ON UNIT 50 AT TIME STEP 12, STRESS PERIOD    2
 UBUDSV SAVING "FLOW RIGHT FACE " ON UNIT 50 AT TIME STEP 12, STRESS PERIOD    2
 UBUDSV SAVING "FLOW FRONT FACE " ON UNIT 50 AT TIME STEP 12, STRESS PERIOD    2
 UBUDSV SAVING "FLOW LOWER FACE " ON UNIT 50 AT TIME STEP 12, STRESS PERIOD    2
 
 WELLS WITH REDUCED PUMPING FOR STRESS PERIOD     2 TIME STEP    12
   LAY   ROW   COL         APPL.Q          ACT.Q        GW-HEAD       CELL-BOT
     2   314    82  -0.231552E+04  -0.141567E+04   0.129283E+04   0.129170E+04
     2   315    82  -0.231552E+04  -0.110494E+04   0.129264E+04   0.129170E+04
 
 UBUDSV SAVING "           WELLS" ON UNIT 50 AT TIME STEP 12, STRESS PERIOD    2
 UBUDSV SAVING "          DRAINS" ON UNIT 50 AT TIME STEP 12, STRESS PERIOD    2
 UBUDSV SAVING "              ET" ON UNIT 50 AT TIME STEP 12, STRESS PERIOD    2
 UBUDSV SAVING "        RECHARGE" ON UNIT 50 AT TIME STEP 12, STRESS PERIOD    2
 UBUDSV SAVING "  STREAM LEAKAGE" ON UNIT 50 AT TIME STEP 12, STRESS PERIOD    2
 UBUDSV SAVING "STREAMFLOW OUT  " ON UNIT 98 AT TIME STEP 12, STRESS PERIOD    2

 HEAD WILL BE SAVED ON UNIT   30 AT END OF TIME STEP   12, STRESS PERIOD    2
1
  VOLUMETRIC BUDGET FOR ENTIRE MODEL AT END OF TIME STEP   12, STRESS PERIOD   2
  ------------------------------------------------------------------------------

     CUMULATIVE VOLUMES      L**3       RATES FOR THIS TIME STEP      L**3/T
     ------------------                 ------------------------

           IN:                                      IN:
           ---                                      ---
             STORAGE =    98195488.0000               STORAGE =      185585.4844
       CONSTANT HEAD =  1281047040.0000         CONSTANT HEAD =     3193391.2500
               WELLS =           0.0000                 WELLS =           0.0000
              DRAINS =           0.0000                DRAINS =           0.0000
                  ET =           0.0000                    ET =           0.0000
            RECHARGE =    77089840.0000              RECHARGE =      209744.7656
      STREAM LEAKAGE =     3482263.5000        STREAM LEAKAGE =        7304.3901

            TOTAL IN =  1459814528.0000              TOTAL IN =     3596026.0000

          OUT:                                     OUT:
          ----                                     ----
             STORAGE =     7073628.0000               STORAGE =       29390.2734
       CONSTANT HEAD =  1106277888.0000         CONSTANT HEAD =     2653753.7500
               WELLS =    32249796.0000                 WELLS =       87914.8438
              DRAINS =    17191654.0000                DRAINS =       45957.2031
                  ET =   183867504.0000                    ET =      476674.9375
            RECHARGE =           0.0000              RECHARGE =           0.0000
      STREAM LEAKAGE =   113155192.0000        STREAM LEAKAGE =      302334.2812

           TOTAL OUT =  1459815808.0000             TOTAL OUT =     3596025.2500

            IN - OUT =       -1280.0000              IN - OUT =           0.7500

 PERCENT DISCREPANCY =          -0.00     PERCENT DISCREPANCY =           0.00






         TIME SUMMARY AT END OF TIME STEP   12 IN STRESS PERIOD    2
                    SECONDS     MINUTES      HOURS       DAYS        YEARS
                    -----------------------------------------------------------
   TIME STEP LENGTH 2.62800E+06  43800.      730.00      30.417     8.32763E-02
 STRESS PERIOD TIME 3.15360E+07 5.25600E+05  8760.0      365.00     0.99932    
         TOTAL TIME 3.16224E+07 5.27040E+05  8784.0      366.00      1.0021    
1

 Run end date and time (yyyy/mm/dd hh:mm:ss): 2019/08/27 21:07:41
 Elapsed run time:  6 Minutes, 12.457 Seconds

