                                  MODFLOW-2005     
      U.S. GEOLOGICAL SURVEY MODULAR FINITE-DIFFERENCE GROUND-WATER FLOW MODEL
                            VERSION 1.11.00 8/8/2013

 LIST FILE: supply2.lst
                         UNIT   10

 OPENING ..\data\supply.dis
 FILE TYPE:DIS   UNIT   11   STATUS:OLD    
 FORMAT:FORMATTED              ACCESS:SEQUENTIAL          

 OPENING ..\data\supply.ba6
 FILE TYPE:BAS6   UNIT   12   STATUS:OLD    
 FORMAT:FORMATTED              ACCESS:SEQUENTIAL          

 OPENING ..\data\supply.bc6
 FILE TYPE:BCF6   UNIT   13   STATUS:OLD    
 FORMAT:FORMATTED              ACCESS:SEQUENTIAL          

 OPENING ..\data\supply.rch
 FILE TYPE:RCH   UNIT   15   STATUS:OLD    
 FORMAT:FORMATTED              ACCESS:SEQUENTIAL          

 OPENING ..\data\supply2.sfr
 FILE TYPE:SFR   UNIT   16   STATUS:OLD    
 FORMAT:FORMATTED              ACCESS:SEQUENTIAL          

 OPENING ..\data\supply.oc
 FILE TYPE:OC   UNIT   17   STATUS:OLD    
 FORMAT:FORMATTED              ACCESS:SEQUENTIAL          

 OPENING ..\data\supply.pcg
 FILE TYPE:PCG   UNIT   18   STATUS:OLD    
 FORMAT:FORMATTED              ACCESS:SEQUENTIAL          

 OPENING supply2.wel
 FILE TYPE:WEL   UNIT   19   STATUS:OLD    
 FORMAT:FORMATTED              ACCESS:SEQUENTIAL          

 OPENING supply2sf.cbc
 FILE TYPE:DATA(BINARY)   UNIT   50   STATUS:UNKNOWN
 FORMAT:BINARY                 ACCESS:SEQUENTIAL          

 OPENING supply2hd.bhd
 FILE TYPE:DATA(BINARY)   UNIT   51   STATUS:UNKNOWN
 FORMAT:BINARY                 ACCESS:SEQUENTIAL          

 BAS -- BASIC PACKAGE, VERSION 7, 5/2/2005 INPUT READ FROM UNIT   12
 
 MODFLOW was compiled using uniform precision
 Precision of REAL and DOUBLE PRECISION variables:          15

 DISCRETIZATION INPUT DATA READ FROM UNIT   11
    1 LAYERS        25 ROWS        30 COLUMNS
   12 STRESS PERIOD(S) IN SIMULATION
 MODEL TIME UNIT IS DAYS
 MODEL LENGTH UNIT IS UNDEFINED
  Confining bed flag for each layer:
   0

                     DELR =   200.000    

                     DELC =   200.000    

 TOP ELEVATION OF LAYER 1 =  100.0000    

   MODEL LAYER BOTTOM EL. =   0.00000     FOR LAYER   1


 STRESS PERIOD     LENGTH       TIME STEPS     MULTIPLIER FOR DELT    SS FLAG
 ----------------------------------------------------------------------------
        1         92.00000          1                    1.500         TR
        2         91.00000          1                    1.500         TR
        3         91.00000          1                    1.500         TR
        4         91.00000          1                    1.500         TR
        5         92.00000          1                    1.500         TR
        6         91.00000          1                    1.500         TR
        7         91.00000          1                    1.500         TR
        8         91.00000          1                    1.500         TR
        9         92.00000          1                    1.500         TR
       10         91.00000          1                    1.500         TR
       11         91.00000          1                    1.500         TR
       12         91.00000          1                    1.500         TR

 TRANSIENT SIMULATION



 
 #MODOFC transient water supply sample problem                                   
 #                                                                               
 THE FREE FORMAT OPTION HAS BEEN SELECTED



                     BOUNDARY ARRAY FOR LAYER   1
 READING ON UNIT   12 WITH FORMAT: (20I4)              

 AQUIFER HEAD WILL BE SET TO   0.0000     AT ALL NO-FLOW NODES (IBOUND=0).



                       INITIAL HEAD FOR LAYER   1
 READING ON UNIT   12 WITH FORMAT: (10F13.0)           

 OUTPUT CONTROL IS SPECIFIED ONLY AT TIME STEPS FOR WHICH OUTPUT IS DESIRED
 COMPACT CELL-BY-CELL BUDGET FILES WILL BE WRITTEN
 HEAD PRINT FORMAT CODE IS  18    DRAWDOWN PRINT FORMAT CODE IS   0
 HEADS WILL BE SAVED ON UNIT   51    DRAWDOWNS WILL BE SAVED ON UNIT    0

 BCF -- BLOCK-CENTERED FLOW PACKAGE, VERSION 7, 5/2/2005
         INPUT READ FROM UNIT 13
 TRANSIENT SIMULATION
 HEAD AT CELLS THAT CONVERT TO DRY=   0.0000    
 WETTING CAPABILITY IS NOT ACTIVE
      LAYER  LAYER-TYPE CODE     INTERBLOCK T
      --------------------------------------------
         1            0          0 -- HARMONIC    

 COLUMN TO ROW ANISOTROPY =  1.000000    

     PRIMARY STORAGE COEF =  5.000000E-02 FOR LAYER   1

     TRANSMIS. ALONG ROWS =   500.000     FOR LAYER   1

 WEL -- WELL PACKAGE, VERSION 7, 5/2/2005 INPUT READ FROM UNIT   19
 # Well package input file written by MMProc
 No named parameters
 MAXIMUM OF      6 ACTIVE WELLS AT ONE TIME


     0 Well parameters

 RCH -- RECHARGE PACKAGE, VERSION 7, 5/2/2005 INPUT READ FROM UNIT   15
 No named parameters
 OPTION 1 -- RECHARGE TO TOP LAYER


     0 Recharge parameters

 SFR7 -- STREAMFLOW ROUTING PACKAGE, VERSION 1.0.7, 2013-01-15
         INPUT READ FROM UNIT  16
 #  Supply2 test problem for GWM-VI
 #  The eighth entry in the first data line is ISTCB2 -
 #    Setting this to a negative number indicates that
 #    streamflows out of the reach will be saved to a
 #    binary file.  The absolute value of ISTCB2 is the
 #    unit to which unformatted flows will be written.
 #
 No named parameters
 Segment information will not be 
 read by reach
 No named parameters
 No specifed inflow files


 NUMBER OF STREAM REACHES IS   40

 NUMBER OF STREAM SEGMENTS IS    3

 NUMBER OF STREAM PARAMETERS IS    0

 NUMBER OF STREAM SEGMENTS DEFINED USING PARAMETERS IS              0

 MAXIMUM ERROR FOR STREAM LEAKAGE RATES IS  1.00E-04

 CONSTANT FOR MANNINGS EQUATION IS  1.2839E+05





   STREAM NETWORK DESCRIPTION: 

   LAYER    ROW    COL   SEGMENT   REACH     LENGTH
                          NUMBER   NUMBER    IN CELL        
   --------------------------------------------------
      1     13      1       1        1    2.0000E+02
      1     13      2       1        2    2.0000E+02
      1     14      3       1        3    2.0000E+02
      1     15      4       1        4    2.0000E+02
      1     16      5       1        5    2.0000E+02
      1     16      6       1        6    2.0000E+02
      1     16      7       1        7    2.0000E+02
      1     16      8       1        8    2.0000E+02
      1     16      9       1        9    2.0000E+02
      1     16     10       1       10    2.0000E+02
      1     16     11       1       11    2.0000E+02
      1     16     12       1       12    2.0000E+02
      1     15     13       1       13    2.0000E+02
      1     14     14       1       14    2.0000E+02
      1     13     15       1       15    2.0000E+02
      1     12     16       1       16    2.0000E+02
      1     12     17       1       17    2.0000E+02
      1     12     18       1       18    2.0000E+02
      1     12     19       1       19    2.0000E+02
      1     13     20       1       20    2.0000E+02
      1     14     21       1       21    2.0000E+02
      1     14     22       1       22    2.0000E+02
      1      9     30       2        1    2.0000E+02
      1      9     29       2        2    2.0000E+02
      1      9     28       2        3    2.0000E+02
      1      9     27       2        4    2.0000E+02
      1     10     26       2        5    2.0000E+02
      1     11     25       2        6    2.0000E+02
      1     12     24       2        7    2.0000E+02
      1     13     23       2        8    2.0000E+02
      1     14     22       2        9    2.0000E+02
      1     14     22       3        1    2.0000E+02
      1     15     23       3        2    2.0000E+02
      1     15     24       3        3    2.0000E+02
      1     15     25       3        4    2.0000E+02
      1     15     26       3        5    2.0000E+02
      1     16     27       3        6    2.0000E+02
      1     17     28       3        7    2.0000E+02
      1     18     29       3        8    2.0000E+02
      1     18     30       3        9    2.0000E+02




 PCG -- CONJUGATE-GRADIENT SOLUTION PACKAGE, VERSION 7, 5/2/2005
 MAXIMUM OF    500 CALLS OF SOLUTION ROUTINE
 MAXIMUM OF      5 INTERNAL ITERATIONS PER CALL TO SOLUTION ROUTINE
 MATRIX PRECONDITIONING TYPE :    1



                                    SOLUTION BY THE CONJUGATE-GRADIENT METHOD
                                   -------------------------------------------
                    MAXIMUM NUMBER OF CALLS TO PCG ROUTINE =      500
                        MAXIMUM ITERATIONS PER CALL TO PCG =        5
                               MATRIX PRECONDITIONING TYPE =        1
        RELAXATION FACTOR (ONLY USED WITH PRECOND. TYPE 1) =    0.10000E+01
 PARAMETER OF POLYNOMIAL PRECOND. = 2 (2) OR IS CALCULATED :        0
                         HEAD CHANGE CRITERION FOR CLOSURE =    0.10000E-05
                     RESIDUAL CHANGE CRITERION FOR CLOSURE =    0.10000E+01
            PCG HEAD AND RESIDUAL CHANGE PRINTOUT INTERVAL =        1
     PRINTING FROM SOLVER IS LIMITED(1) OR SUPPRESSED (>1) =        1
                            STEADY-STATE DAMPING PARAMETER =    0.10000E+01
                               TRANSIENT DAMPING PARAMETER =    0.10000E+01
1
                            STRESS PERIOD NO.    1, LENGTH =   92.00000    
                            -----------------------------------------------

                              NUMBER OF TIME STEPS =     1

                               MULTIPLIER FOR DELT =     1.500

                            INITIAL TIME STEP SIZE =   92.00000    

 WELL NO.  LAYER   ROW   COL   STRESS RATE         
 --------------------------------------------------
      1      1     18     24     -0.5000E+05
      2      1     19     27     -0.5000E+05
      3      1     21     24     -0.5000E+05

      3 WELLS

                 RECHARGE =  5.000000E-04



 CLASSIFICATION & COUNT OF STREAM SEGMENTS BASED ON SOURCE OF INFLOW:

                HEADWATER     DIVERSION     RECEIVES TRIBUTARY FLOW
                ---------     ---------     -----------------------
                     2              0               1



                    INPUT DATA FOR EACH STREAM SEGMENT
 ---------------------------------------------------------------------------------------------

 SEGMENT    SEG.     INFLOW   OVERLAND   STREAM    STREAM   ICALC  OUTFLOW  DIVERSION PRIORITY
    NO.    LENGTH     RATE     RUNOFF      ET       PPT.    METH.  TO SEG.  FROM SEG.    NO.

      1  4.400E+03 1.000E+05 0.000E+00 0.000E+00 0.000E+00    1        3        0        0
      2  1.800E+03 5.000E+04 0.000E+00 0.000E+00 0.000E+00    1        3        0        0
      3  1.800E+03 0.000E+00 0.000E+00 0.000E+00 0.000E+00    1        0        0        0


         STREAMBED PROPERTIES AND STREAM DIMENSIONS

 SEGMENT     BED HYD. COND.      BED THICKNESS     ELEV.-TOP OF BED     WIDTH OF STREAM     DEPTH OF STREAM    STREAM ROUGHNESS
    No.     UPPER     LOWER     UPPER     LOWER     UPPER     LOWER     UPPER     LOWER     UPPER     LOWER   CHANNEL      BANK

     1  5.000E+00 5.000E+00 1.000E+00 1.000E+00 4.850E+01 3.800E+01 2.000E+01 2.000E+01                     5.000E-02
     2  5.000E+00 5.000E+00 1.000E+00 1.000E+00 4.025E+01 3.800E+01 2.000E+01 2.000E+01                     5.000E-02
     3  5.000E+00 5.000E+00 1.000E+00 1.000E+00 3.800E+01 3.000E+01 2.000E+01 2.000E+01                     5.000E-02



 
 SOLVING FOR HEAD 


     9 CALLS TO PCG ROUTINE FOR TIME STEP   1 IN STRESS PERIOD    1
    36 TOTAL ITERATIONS

 OUTPUT CONTROL FOR STRESS PERIOD    1   TIME STEP    1
    SAVE BUDGET
    SAVE HEAD FOR ALL LAYERS
    PRINT HEAD FOR ALL LAYERS
 UBDSV2 SAVING "STREAMFLOW OUT  " ON UNIT  50 AT TIME STEP  1, STRESS PERIOD   1



 STREAM LISTING     PERIOD      1   STEP        1

 LAYER ROW COL. STREAM  RCH.  FLOW INTO     FLOW TO   FLOW OUT OF   OVRLND.     DIRECT     STREAM       STREAM     STREAM     STREAM   STREAMBED  STREAMBED
                SEG.NO.  NO.  STRM. RCH.    AQUIFER    STRM. RCH.    RUNOFF     PRECIP       ET          HEAD       DEPTH      WIDTH   CONDCTNC.   GRADIENT

   1   13    1     1     1    1.0000E+05 -5.7570E+03   1.0576E+05  0.000E+00  0.000E+00  0.000E+00  4.84085E+01  1.471E-01  2.000E+01  2.000E+04 -2.878E-01
   1   13    2     1     2    1.0576E+05 -8.6053E+03   1.1436E+05  0.000E+00  0.000E+00  0.000E+00  4.79373E+01  1.532E-01  2.000E+01  2.000E+04 -4.303E-01
   1   14    3     1     3    1.1436E+05 -7.8826E+03   1.2224E+05  0.000E+00  0.000E+00  0.000E+00  4.74668E+01  1.600E-01  2.000E+01  2.000E+04 -3.941E-01
   1   15    4     1     4    1.2224E+05 -7.7116E+03   1.2996E+05  0.000E+00  0.000E+00  0.000E+00  4.69958E+01  1.662E-01  2.000E+01  2.000E+04 -3.856E-01
   1   16    5     1     5    1.2996E+05 -7.4971E+03   1.3745E+05  0.000E+00  0.000E+00  0.000E+00  4.65245E+01  1.722E-01  2.000E+01  2.000E+04 -3.749E-01
   1   16    6     1     6    1.3745E+05 -6.0009E+03   1.4345E+05  0.000E+00  0.000E+00  0.000E+00  4.60524E+01  1.774E-01  2.000E+01  2.000E+04 -3.000E-01
   1   16    7     1     7    1.4345E+05 -6.1350E+03   1.4959E+05  0.000E+00  0.000E+00  0.000E+00  4.55796E+01  1.819E-01  2.000E+01  2.000E+04 -3.068E-01
   1   16    8     1     8    1.4959E+05 -6.2130E+03   1.5580E+05  0.000E+00  0.000E+00  0.000E+00  4.51069E+01  1.865E-01  2.000E+01  2.000E+04 -3.106E-01
   1   16    9     1     9    1.5580E+05 -6.2164E+03   1.6202E+05  0.000E+00  0.000E+00  0.000E+00  4.46342E+01  1.910E-01  2.000E+01  2.000E+04 -3.108E-01
   1   16   10     1    10    1.6202E+05 -6.1465E+03   1.6817E+05  0.000E+00  0.000E+00  0.000E+00  4.41613E+01  1.954E-01  2.000E+01  2.000E+04 -3.073E-01
   1   16   11     1    11    1.6817E+05 -6.0263E+03   1.7419E+05  0.000E+00  0.000E+00  0.000E+00  4.36883E+01  1.997E-01  2.000E+01  2.000E+04 -3.013E-01
   1   16   12     1    12    1.7419E+05 -7.6118E+03   1.8180E+05  0.000E+00  0.000E+00  0.000E+00  4.32158E+01  2.044E-01  2.000E+01  2.000E+04 -3.806E-01
   1   15   13     1    13    1.8180E+05 -7.8735E+03   1.8968E+05  0.000E+00  0.000E+00  0.000E+00  4.27438E+01  2.097E-01  2.000E+01  2.000E+04 -3.937E-01
   1   14   14     1    14    1.8968E+05 -8.0812E+03   1.9776E+05  0.000E+00  0.000E+00  0.000E+00  4.22719E+01  2.151E-01  2.000E+01  2.000E+04 -4.041E-01
   1   13   15     1    15    1.9776E+05 -8.3400E+03   2.0610E+05  0.000E+00  0.000E+00  0.000E+00  4.18001E+01  2.205E-01  2.000E+01  2.000E+04 -4.170E-01
   1   12   16     1    16    2.0610E+05 -9.2993E+03   2.1540E+05  0.000E+00  0.000E+00  0.000E+00  4.13285E+01  2.262E-01  2.000E+01  2.000E+04 -4.650E-01
   1   12   17     1    17    2.1540E+05 -6.4252E+03   2.2182E+05  0.000E+00  0.000E+00  0.000E+00  4.08563E+01  2.313E-01  2.000E+01  2.000E+04 -3.213E-01
   1   12   18     1    18    2.2182E+05 -6.2025E+03   2.2803E+05  0.000E+00  0.000E+00  0.000E+00  4.03830E+01  2.353E-01  2.000E+01  2.000E+04 -3.101E-01
   1   12   19     1    19    2.2803E+05 -7.9050E+03   2.3593E+05  0.000E+00  0.000E+00  0.000E+00  3.99101E+01  2.397E-01  2.000E+01  2.000E+04 -3.953E-01
   1   13   20     1    20    2.3593E+05 -5.8905E+03   2.4182E+05  0.000E+00  0.000E+00  0.000E+00  3.94371E+01  2.439E-01  2.000E+01  2.000E+04 -2.945E-01
   1   14   21     1    21    2.4182E+05 -3.3525E+03   2.4517E+05  0.000E+00  0.000E+00  0.000E+00  3.89626E+01  2.467E-01  2.000E+01  2.000E+04 -1.676E-01
   1   14   22     1    22    2.4517E+05  4.9302E+03   2.4024E+05  0.000E+00  0.000E+00  0.000E+00  3.84849E+01  2.462E-01  2.000E+01  2.000E+04  2.465E-01
   1    9   30     2     1    5.0000E+04 -5.5553E+03   5.5555E+04  0.000E+00  0.000E+00  0.000E+00  4.02447E+01  1.197E-01  2.000E+01  2.000E+04 -2.778E-01
   1    9   29     2     2    5.5555E+04 -5.8551E+03   6.1410E+04  0.000E+00  0.000E+00  0.000E+00  4.00023E+01  1.273E-01  2.000E+01  2.000E+04 -2.928E-01
   1    9   28     2     3    6.1410E+04 -6.1812E+03   6.7592E+04  0.000E+00  0.000E+00  0.000E+00  3.97600E+01  1.350E-01  2.000E+01  2.000E+04 -3.091E-01
   1    9   27     2     4    6.7592E+04 -9.5778E+03   7.7169E+04  0.000E+00  0.000E+00  0.000E+00  3.95197E+01  1.447E-01  2.000E+01  2.000E+04 -4.789E-01
   1   10   26     2     5    7.7169E+04 -7.6947E+03   8.4864E+04  0.000E+00  0.000E+00  0.000E+00  3.92798E+01  1.548E-01  2.000E+01  2.000E+04 -3.847E-01
   1   11   25     2     6    8.4864E+04 -6.5572E+03   9.1421E+04  0.000E+00  0.000E+00  0.000E+00  3.90378E+01  1.628E-01  2.000E+01  2.000E+04 -3.279E-01
   1   12   24     2     7    9.1421E+04 -5.2781E+03   9.6699E+04  0.000E+00  0.000E+00  0.000E+00  3.87943E+01  1.693E-01  2.000E+01  2.000E+04 -2.639E-01
   1   13   23     2     8    9.6699E+04 -3.6840E+03   1.0038E+05  0.000E+00  0.000E+00  0.000E+00  3.85491E+01  1.741E-01  2.000E+01  2.000E+04 -1.842E-01
   1   14   22     2     9    1.0038E+05  1.2399E+03   9.9143E+04  0.000E+00  0.000E+00  0.000E+00  3.83004E+01  1.754E-01  2.000E+01  2.000E+04  6.199E-02
   1   14   22     3     1    3.3939E+05 -8.6210E+03   3.4801E+05  0.000E+00  0.000E+00  0.000E+00  3.78073E+01  2.518E-01  2.000E+01  2.000E+04 -4.311E-01
   1   15   23     3     2    3.4801E+05  1.0196E+03   3.4699E+05  0.000E+00  0.000E+00  0.000E+00  3.69201E+01  2.534E-01  2.000E+01  2.000E+04  5.098E-02
   1   15   24     3     3    3.4699E+05  2.0524E+03   3.4494E+05  0.000E+00  0.000E+00  0.000E+00  3.60305E+01  2.528E-01  2.000E+01  2.000E+04  1.026E-01
   1   15   25     3     4    3.4494E+05  1.1298E+03   3.4381E+05  0.000E+00  0.000E+00  0.000E+00  3.51410E+01  2.521E-01  2.000E+01  2.000E+04  5.649E-02
   1   15   26     3     5    3.4381E+05 -1.8761E+03   3.4568E+05  0.000E+00  0.000E+00  0.000E+00  3.42522E+01  2.522E-01  2.000E+01  2.000E+04 -9.380E-02
   1   16   27     3     6    3.4568E+05  1.9448E+03   3.4374E+05  0.000E+00  0.000E+00  0.000E+00  3.33633E+01  2.522E-01  2.000E+01  2.000E+04  9.724E-02
   1   17   28     3     7    3.4374E+05  4.1379E+03   3.3960E+05  0.000E+00  0.000E+00  0.000E+00  3.24731E+01  2.509E-01  2.000E+01  2.000E+04  2.069E-01
   1   18   29     3     8    3.3960E+05  3.3177E+03   3.3628E+05  0.000E+00  0.000E+00  0.000E+00  3.15826E+01  2.492E-01  2.000E+01  2.000E+04  1.659E-01
   1   18   30     3     9    3.3628E+05 -3.3204E+03   3.3960E+05  0.000E+00  0.000E+00  0.000E+00  3.06937E+01  2.492E-01  2.000E+01  2.000E+04 -1.660E-01



1
              HEAD IN LAYER   1 AT END OF TIME STEP   1 IN STRESS PERIOD    1
  ---------------------------------------------------------------------------

          1      2      3      4      5      6      7      8      9     10
         11     12     13     14     15     16     17     18     19     20
         21     22     23     24     25     26     27     28     29     30
 .........................................................................
   1  ****** ****** ****** ****** ****** ****** ****** ****** ****** ******
      ****** ****** ****** ****** ****** ****** ****** ****** ****** ******
      ****** ****** ****** ****** ****** ****** ****** ****** ****** ******
   2  ****** ****** ****** ****** ****** ****** ****** ****** ****** ******
      ****** ****** ****** ****** ****** ****** ****** ****** ****** ******
      ****** ****** ****** ****** ****** ****** ****** ****** ****** ******
   3  ****** ****** ****** ****** ****** ****** ****** ****** ****** ******
      ****** ****** ****** ****** ****** ****** ****** ****** ****** ******
      ****** ****** ****** ****** ****** ****** ****** ****** ****** ******
   4  ****** ****** ****** ****** ****** ****** ****** ****** ****** ******
      ****** ****** ****** ****** ****** ****** ****** ****** ****** ******
      ****** ****** ****** ****** ****** ****** ****** ****** ****** ******
   5  ****** ****** ****** ****** ****** ****** ****** ****** ****** ******
      ****** ****** ****** ****** ****** ****** ****** ****** ****** ******
      ****** ****** ****** ****** ****** ****** ****** ****** ****** ******
   6  ****** ****** ****** ****** ****** ****** ****** ****** ****** ******
      ****** ****** ****** ****** ****** ****** ****** ****** ****** ******
      ****** ****** ****** ****** ****** ****** ****** ****** ****** ******
   7  ****** ****** ****** ****** ****** ****** ****** ****** ****** ******
      ****** ****** ****** ****** ****** ****** ****** ****** ****** ******
      ****** ****** ****** ****** ****** ****** ****** ****** ****** ******
   8  ****** ****** ****** ****** ****** ****** ****** ****** ****** ******
      ****** ****** ****** ****** ****** ****** ****** ****** ****** ******
      ****** ****** ****** ****** ****** ****** ****** ****** ****** ******
   9  ****** ****** ****** ****** ****** ****** ****** ****** ****** ******
      ****** ****** ****** ****** ****** ****** ****** ****** ****** ******
      ****** ****** ****** ****** ****** ****** ****** ****** ****** ******
  10  ****** ****** ****** ****** ****** ****** ****** ****** ****** ******
      ****** ****** ****** ****** ****** ****** ****** ****** ****** ******
      ****** ****** ****** ****** ****** ****** ****** ****** ****** ******
  11  ****** ****** ****** ****** ****** ****** ****** ****** ****** ******
      ****** ****** ****** ****** ****** ****** ****** ****** ****** ******
      ****** ****** ****** ****** ****** ****** ****** ****** ****** ******
  12  ****** ****** ****** ****** ****** ****** ****** ****** ****** ******
      ****** ****** ****** ****** ****** ****** ****** ****** ****** ******
      ****** ****** ****** ****** ****** ****** ****** ****** ****** ******
  13  ****** ****** ****** ****** ****** ****** ****** ****** ****** ******
      ****** ****** ****** ****** ****** ****** ****** ****** ****** ******
      ****** ****** ****** ****** ****** ****** ****** ****** ****** ******
  14  ****** ****** ****** ****** ****** ****** ****** ****** ****** ******
      ****** ****** ****** ****** ****** ****** ****** ****** ****** ******
      ****** ****** ****** ****** ****** ****** ****** ****** ****** ******
  15  ****** ****** ****** ****** ****** ****** ****** ****** ****** ******
      ****** ****** ****** ****** ****** ****** ****** ****** ****** ******
      ****** ****** ****** ****** ****** ****** ****** ****** ****** ******
  16  ****** ****** ****** ****** ****** ****** ****** ****** ****** ******
      ****** ****** ****** ****** ****** ****** ****** ****** ****** ******
      ****** ****** ****** ****** ****** ****** ****** ****** ****** ******
  17  ****** ****** ****** ****** ****** ****** ****** ****** ****** ******
      ****** ****** ****** ****** ****** ****** ****** ****** ****** ******
      ****** ****** ****** ****** ****** ****** ****** ****** ****** ******
  18  ****** ****** ****** ****** ****** ****** ****** ****** ****** ******
      ****** ****** ****** ****** ****** ****** ****** ****** ****** ******
      ****** ****** ****** ****** ****** ****** ****** ****** ****** ******
  19  ****** ****** ****** ****** ****** ****** ****** ****** ****** ******
      ****** ****** ****** ****** ****** ****** ****** ****** ****** ******
      ****** ****** ****** ****** ****** ****** ****** ****** ****** ******
  20  ****** ****** ****** ****** ****** ****** ****** ****** ****** ******
      ****** ****** ****** ****** ****** ****** ****** ****** ****** ******
      ****** ****** ****** ****** ****** ****** ****** ****** ****** ******
  21  ****** ****** ****** ****** ****** ****** ****** ****** ****** ******
      ****** ****** ****** ****** ****** ****** ****** ****** ****** ******
      ****** ****** ****** ****** ****** ****** ****** ****** ****** ******
  22  ****** ****** ****** ****** ****** ****** ****** ****** ****** ******
      ****** ****** ****** ****** ****** ****** ****** ****** ****** ******
      ****** ****** ****** ****** ****** ****** ****** ****** ****** ******
  23  ****** ****** ****** ****** ****** ****** ****** ****** ****** ******
      ****** ****** ****** ****** ****** ****** ****** ****** ****** ******
      ****** ****** ****** ****** ****** ****** ****** ****** ****** ******
  24  ****** ****** ****** ****** ****** ****** ****** ****** ****** ******
      ****** ****** ****** ****** ****** ****** ****** ****** ****** ******
      ****** ****** ****** ****** ****** ****** ****** ****** ****** ******
  25  ****** ****** ****** ****** ****** ****** ****** ****** ****** ******
      ****** ****** ****** ****** ****** ****** ****** ****** ****** ******
      ****** ****** ****** ****** ****** ****** ****** ****** ****** ******

 HEAD WILL BE SAVED ON UNIT   51 AT END OF TIME STEP    1, STRESS PERIOD    1
1
  VOLUMETRIC BUDGET FOR ENTIRE MODEL AT END OF TIME STEP    1, STRESS PERIOD   1
  ------------------------------------------------------------------------------

     CUMULATIVE VOLUMES      L**3       RATES FOR THIS TIME STEP      L**3/T
     ------------------                 ------------------------

           IN:                                      IN:
           ---                                      ---
             STORAGE =    19352115.8286               STORAGE =      210349.0851
       CONSTANT HEAD =    10621633.9816         CONSTANT HEAD =      115452.5433
               WELLS =           0.0000                 WELLS =           0.0000
            RECHARGE =     1269600.0000              RECHARGE =       13800.0000
      STREAM LEAKAGE =     1819056.6085        STREAM LEAKAGE =       19772.3544

            TOTAL IN =    33062406.4188              TOTAL IN =      359373.9828

          OUT:                                     OUT:
          ----                                     ----
             STORAGE =           0.0000               STORAGE =           0.0000
       CONSTANT HEAD =           0.0000         CONSTANT HEAD =           0.0000
               WELLS =    13800000.0000                 WELLS =      150000.0000
            RECHARGE =           0.0000              RECHARGE =           0.0000
      STREAM LEAKAGE =    19262406.5679        STREAM LEAKAGE =      209373.9844

           TOTAL OUT =    33062406.5679             TOTAL OUT =      359373.9844

            IN - OUT =          -0.1491              IN - OUT =      -1.6208E-03

 PERCENT DISCREPANCY =          -0.00     PERCENT DISCREPANCY =          -0.00






         TIME SUMMARY AT END OF TIME STEP    1 IN STRESS PERIOD    1
                    SECONDS     MINUTES      HOURS       DAYS        YEARS
                    -----------------------------------------------------------
   TIME STEP LENGTH 7.94880E+06 1.32480E+05  2208.0      92.000     0.25188    
 STRESS PERIOD TIME 7.94880E+06 1.32480E+05  2208.0      92.000     0.25188    
         TOTAL TIME 7.94880E+06 1.32480E+05  2208.0      92.000     0.25188    
1
1
                            STRESS PERIOD NO.    2, LENGTH =   91.00000    
                            -----------------------------------------------

                              NUMBER OF TIME STEPS =     1

                               MULTIPLIER FOR DELT =     1.500

                            INITIAL TIME STEP SIZE =   91.00000    

 WELL NO.  LAYER   ROW   COL   STRESS RATE         
 --------------------------------------------------
      1      1     18     24     -0.5000E+05
      2      1     19     27     -0.5000E+05
      3      1     21     24     -0.5000E+05

      3 WELLS

                 RECHARGE =  2.000000E-03

 REUSING STREAM SEGMENT DATA FROM LAST STRESS PERIOD
 
 SOLVING FOR HEAD 


     7 CALLS TO PCG ROUTINE FOR TIME STEP   1 IN STRESS PERIOD    2
    27 TOTAL ITERATIONS

 OUTPUT CONTROL FOR STRESS PERIOD    2   TIME STEP    1
    SAVE BUDGET
    SAVE HEAD FOR ALL LAYERS
    PRINT HEAD FOR ALL LAYERS
 UBDSV2 SAVING "STREAMFLOW OUT  " ON UNIT  50 AT TIME STEP  1, STRESS PERIOD   2



 STREAM LISTING     PERIOD      2   STEP        1

 LAYER ROW COL. STREAM  RCH.  FLOW INTO     FLOW TO   FLOW OUT OF   OVRLND.     DIRECT     STREAM       STREAM     STREAM     STREAM   STREAMBED  STREAMBED
                SEG.NO.  NO.  STRM. RCH.    AQUIFER    STRM. RCH.    RUNOFF     PRECIP       ET          HEAD       DEPTH      WIDTH   CONDCTNC.   GRADIENT

   1   13    1     1     1    1.0000E+05 -3.8491E+03   1.0385E+05  0.000E+00  0.000E+00  0.000E+00  4.84077E+01  1.463E-01  2.000E+01  2.000E+04 -1.925E-01
   1   13    2     1     2    1.0385E+05 -6.2007E+03   1.1005E+05  0.000E+00  0.000E+00  0.000E+00  4.79347E+01  1.506E-01  2.000E+01  2.000E+04 -3.100E-01
   1   14    3     1     3    1.1005E+05 -5.1657E+03   1.1522E+05  0.000E+00  0.000E+00  0.000E+00  4.74622E+01  1.554E-01  2.000E+01  2.000E+04 -2.583E-01
   1   15    4     1     4    1.1522E+05 -5.0108E+03   1.2023E+05  0.000E+00  0.000E+00  0.000E+00  4.69891E+01  1.595E-01  2.000E+01  2.000E+04 -2.505E-01
   1   16    5     1     5    1.2023E+05 -5.1790E+03   1.2541E+05  0.000E+00  0.000E+00  0.000E+00  4.65159E+01  1.636E-01  2.000E+01  2.000E+04 -2.589E-01
   1   16    6     1     6    1.2541E+05 -4.1048E+03   1.2951E+05  0.000E+00  0.000E+00  0.000E+00  4.60423E+01  1.673E-01  2.000E+01  2.000E+04 -2.052E-01
   1   16    7     1     7    1.2951E+05 -4.1958E+03   1.3371E+05  0.000E+00  0.000E+00  0.000E+00  4.55683E+01  1.706E-01  2.000E+01  2.000E+04 -2.098E-01
   1   16    8     1     8    1.3371E+05 -4.2410E+03   1.3795E+05  0.000E+00  0.000E+00  0.000E+00  4.50943E+01  1.738E-01  2.000E+01  2.000E+04 -2.121E-01
   1   16    9     1     9    1.3795E+05 -4.2225E+03   1.4217E+05  0.000E+00  0.000E+00  0.000E+00  4.46202E+01  1.771E-01  2.000E+01  2.000E+04 -2.111E-01
   1   16   10     1    10    1.4217E+05 -4.1388E+03   1.4631E+05  0.000E+00  0.000E+00  0.000E+00  4.41461E+01  1.802E-01  2.000E+01  2.000E+04 -2.069E-01
   1   16   11     1    11    1.4631E+05 -4.0040E+03   1.5031E+05  0.000E+00  0.000E+00  0.000E+00  4.36719E+01  1.832E-01  2.000E+01  2.000E+04 -2.002E-01
   1   16   12     1    12    1.5031E+05 -4.9452E+03   1.5526E+05  0.000E+00  0.000E+00  0.000E+00  4.31979E+01  1.865E-01  2.000E+01  2.000E+04 -2.473E-01
   1   15   13     1    13    1.5526E+05 -4.7436E+03   1.6000E+05  0.000E+00  0.000E+00  0.000E+00  4.27242E+01  1.901E-01  2.000E+01  2.000E+04 -2.372E-01
   1   14   14     1    14    1.6000E+05 -4.8261E+03   1.6483E+05  0.000E+00  0.000E+00  0.000E+00  4.22503E+01  1.935E-01  2.000E+01  2.000E+04 -2.413E-01
   1   13   15     1    15    1.6483E+05 -5.1624E+03   1.6999E+05  0.000E+00  0.000E+00  0.000E+00  4.17766E+01  1.971E-01  2.000E+01  2.000E+04 -2.581E-01
   1   12   16     1    16    1.6999E+05 -6.6055E+03   1.7659E+05  0.000E+00  0.000E+00  0.000E+00  4.13035E+01  2.012E-01  2.000E+01  2.000E+04 -3.303E-01
   1   12   17     1    17    1.7659E+05 -4.1831E+03   1.8078E+05  0.000E+00  0.000E+00  0.000E+00  4.08299E+01  2.049E-01  2.000E+01  2.000E+04 -2.092E-01
   1   12   18     1    18    1.8078E+05 -3.9452E+03   1.8472E+05  0.000E+00  0.000E+00  0.000E+00  4.03554E+01  2.077E-01  2.000E+01  2.000E+04 -1.973E-01
   1   12   19     1    19    1.8472E+05 -5.2401E+03   1.8996E+05  0.000E+00  0.000E+00  0.000E+00  3.98813E+01  2.108E-01  2.000E+01  2.000E+04 -2.620E-01
   1   13   20     1    20    1.8996E+05 -2.7770E+03   1.9274E+05  0.000E+00  0.000E+00  0.000E+00  3.94067E+01  2.135E-01  2.000E+01  2.000E+04 -1.388E-01
   1   14   21     1    21    1.9274E+05 -5.6937E+01   1.9280E+05  0.000E+00  0.000E+00  0.000E+00  3.89304E+01  2.145E-01  2.000E+01  2.000E+04 -2.847E-03
   1   14   22     1    22    1.9280E+05  5.6670E+03   1.8713E+05  0.000E+00  0.000E+00  0.000E+00  3.84512E+01  2.126E-01  2.000E+01  2.000E+04  2.833E-01
   1    9   30     2     1    5.0000E+04 -3.4334E+03   5.3433E+04  0.000E+00  0.000E+00  0.000E+00  4.02432E+01  1.182E-01  2.000E+01  2.000E+04 -1.717E-01
   1    9   29     2     2    5.3433E+04 -3.7588E+03   5.7192E+04  0.000E+00  0.000E+00  0.000E+00  3.99981E+01  1.231E-01  2.000E+01  2.000E+04 -1.879E-01
   1    9   28     2     3    5.7192E+04 -4.1376E+03   6.1330E+04  0.000E+00  0.000E+00  0.000E+00  3.97533E+01  1.283E-01  2.000E+01  2.000E+04 -2.069E-01
   1    9   27     2     4    6.1330E+04 -7.1496E+03   6.8479E+04  0.000E+00  0.000E+00  0.000E+00  3.95105E+01  1.355E-01  2.000E+01  2.000E+04 -3.575E-01
   1   10   26     2     5    6.8479E+04 -4.7999E+03   7.3279E+04  0.000E+00  0.000E+00  0.000E+00  3.92679E+01  1.429E-01  2.000E+01  2.000E+04 -2.400E-01
   1   11   25     2     6    7.3279E+04 -3.6884E+03   7.6968E+04  0.000E+00  0.000E+00  0.000E+00  3.90229E+01  1.479E-01  2.000E+01  2.000E+04 -1.844E-01
   1   12   24     2     7    7.6968E+04 -2.6724E+03   7.9640E+04  0.000E+00  0.000E+00  0.000E+00  3.87766E+01  1.516E-01  2.000E+01  2.000E+04 -1.336E-01
   1   13   23     2     8    7.9640E+04 -1.5667E+03   8.1207E+04  0.000E+00  0.000E+00  0.000E+00  3.85291E+01  1.541E-01  2.000E+01  2.000E+04 -7.833E-02
   1   14   22     2     9    8.1207E+04  2.2171E+03   7.8990E+04  0.000E+00  0.000E+00  0.000E+00  3.82787E+01  1.537E-01  2.000E+01  2.000E+04  1.109E-01
   1   14   22     3     1    2.6612E+05 -7.8891E+03   2.7401E+05  0.000E+00  0.000E+00  0.000E+00  3.77734E+01  2.179E-01  2.000E+01  2.000E+04 -3.945E-01
   1   15   23     3     2    2.7401E+05  5.0412E+03   2.6897E+05  0.000E+00  0.000E+00  0.000E+00  3.68852E+01  2.186E-01  2.000E+01  2.000E+04  2.521E-01
   1   15   24     3     3    2.6897E+05  5.1551E+03   2.6381E+05  0.000E+00  0.000E+00  0.000E+00  3.59939E+01  2.161E-01  2.000E+01  2.000E+04  2.578E-01
   1   15   25     3     4    2.6381E+05  4.1838E+03   2.5963E+05  0.000E+00  0.000E+00  0.000E+00  3.51027E+01  2.138E-01  2.000E+01  2.000E+04  2.092E-01
   1   15   26     3     5    2.5963E+05  1.6000E+03   2.5803E+05  0.000E+00  0.000E+00  0.000E+00  3.42124E+01  2.124E-01  2.000E+01  2.000E+04  8.000E-02
   1   16   27     3     6    2.5803E+05  6.9019E+03   2.5113E+05  0.000E+00  0.000E+00  0.000E+00  3.33214E+01  2.103E-01  2.000E+01  2.000E+04  3.451E-01
   1   17   28     3     7    2.5113E+05  9.4296E+03   2.4170E+05  0.000E+00  0.000E+00  0.000E+00  3.24284E+01  2.062E-01  2.000E+01  2.000E+04  4.715E-01
   1   18   29     3     8    2.4170E+05  8.3696E+03   2.3333E+05  0.000E+00  0.000E+00  0.000E+00  3.15350E+01  2.017E-01  2.000E+01  2.000E+04  4.185E-01
   1   18   30     3     9    2.3333E+05 -3.2523E+01   2.3336E+05  0.000E+00  0.000E+00  0.000E+00  3.06440E+01  1.996E-01  2.000E+01  2.000E+04 -1.626E-03



1
              HEAD IN LAYER   1 AT END OF TIME STEP   1 IN STRESS PERIOD    2
  ---------------------------------------------------------------------------

          1      2      3      4      5      6      7      8      9     10
         11     12     13     14     15     16     17     18     19     20
         21     22     23     24     25     26     27     28     29     30
 .........................................................................
   1  ****** ****** ****** ****** ****** ****** ****** ****** ****** ******
      ****** ****** ****** ****** ****** ****** ****** ****** ****** ******
      ****** ****** ****** ****** ****** ****** ****** ****** ****** ******
   2  ****** ****** ****** ****** ****** ****** ****** ****** ****** ******
      ****** ****** ****** ****** ****** ****** ****** ****** ****** ******
      ****** ****** ****** ****** ****** ****** ****** ****** ****** ******
   3  ****** ****** ****** ****** ****** ****** ****** ****** ****** ******
      ****** ****** ****** ****** ****** ****** ****** ****** ****** ******
      ****** ****** ****** ****** ****** ****** ****** ****** ****** ******
   4  ****** ****** ****** ****** ****** ****** ****** ****** ****** ******
      ****** ****** ****** ****** ****** ****** ****** ****** ****** ******
      ****** ****** ****** ****** ****** ****** ****** ****** ****** ******
   5  ****** ****** ****** ****** ****** ****** ****** ****** ****** ******
      ****** ****** ****** ****** ****** ****** ****** ****** ****** ******
      ****** ****** ****** ****** ****** ****** ****** ****** ****** ******
   6  ****** ****** ****** ****** ****** ****** ****** ****** ****** ******
      ****** ****** ****** ****** ****** ****** ****** ****** ****** ******
      ****** ****** ****** ****** ****** ****** ****** ****** ****** ******
   7  ****** ****** ****** ****** ****** ****** ****** ****** ****** ******
      ****** ****** ****** ****** ****** ****** ****** ****** ****** ******
      ****** ****** ****** ****** ****** ****** ****** ****** ****** ******
   8  ****** ****** ****** ****** ****** ****** ****** ****** ****** ******
      ****** ****** ****** ****** ****** ****** ****** ****** ****** ******
      ****** ****** ****** ****** ****** ****** ****** ****** ****** ******
   9  ****** ****** ****** ****** ****** ****** ****** ****** ****** ******
      ****** ****** ****** ****** ****** ****** ****** ****** ****** ******
      ****** ****** ****** ****** ****** ****** ****** ****** ****** ******
  10  ****** ****** ****** ****** ****** ****** ****** ****** ****** ******
      ****** ****** ****** ****** ****** ****** ****** ****** ****** ******
      ****** ****** ****** ****** ****** ****** ****** ****** ****** ******
  11  ****** ****** ****** ****** ****** ****** ****** ****** ****** ******
      ****** ****** ****** ****** ****** ****** ****** ****** ****** ******
      ****** ****** ****** ****** ****** ****** ****** ****** ****** ******
  12  ****** ****** ****** ****** ****** ****** ****** ****** ****** ******
      ****** ****** ****** ****** ****** ****** ****** ****** ****** ******
      ****** ****** ****** ****** ****** ****** ****** ****** ****** ******
  13  ****** ****** ****** ****** ****** ****** ****** ****** ****** ******
      ****** ****** ****** ****** ****** ****** ****** ****** ****** ******
      ****** ****** ****** ****** ****** ****** ****** ****** ****** ******
  14  ****** ****** ****** ****** ****** ****** ****** ****** ****** ******
      ****** ****** ****** ****** ****** ****** ****** ****** ****** ******
      ****** ****** ****** ****** ****** ****** ****** ****** ****** ******
  15  ****** ****** ****** ****** ****** ****** ****** ****** ****** ******
      ****** ****** ****** ****** ****** ****** ****** ****** ****** ******
      ****** ****** ****** ****** ****** ****** ****** ****** ****** ******
  16  ****** ****** ****** ****** ****** ****** ****** ****** ****** ******
      ****** ****** ****** ****** ****** ****** ****** ****** ****** ******
      ****** ****** ****** ****** ****** ****** ****** ****** ****** ******
  17  ****** ****** ****** ****** ****** ****** ****** ****** ****** ******
      ****** ****** ****** ****** ****** ****** ****** ****** ****** ******
      ****** ****** ****** ****** ****** ****** ****** ****** ****** ******
  18  ****** ****** ****** ****** ****** ****** ****** ****** ****** ******
      ****** ****** ****** ****** ****** ****** ****** ****** ****** ******
      ****** ****** ****** ****** ****** ****** ****** ****** ****** ******
  19  ****** ****** ****** ****** ****** ****** ****** ****** ****** ******
      ****** ****** ****** ****** ****** ****** ****** ****** ****** ******
      ****** ****** ****** ****** ****** ****** ****** ****** ****** ******
  20  ****** ****** ****** ****** ****** ****** ****** ****** ****** ******
      ****** ****** ****** ****** ****** ****** ****** ****** ****** ******
      ****** ****** ****** ****** ****** ****** ****** ****** ****** ******
  21  ****** ****** ****** ****** ****** ****** ****** ****** ****** ******
      ****** ****** ****** ****** ****** ****** ****** ****** ****** ******
      ****** ****** ****** ****** ****** ****** ****** ****** ****** ******
  22  ****** ****** ****** ****** ****** ****** ****** ****** ****** ******
      ****** ****** ****** ****** ****** ****** ****** ****** ****** ******
      ****** ****** ****** ****** ****** ****** ****** ****** ****** ******
  23  ****** ****** ****** ****** ****** ****** ****** ****** ****** ******
      ****** ****** ****** ****** ****** ****** ****** ****** ****** ******
      ****** ****** ****** ****** ****** ****** ****** ****** ****** ******
  24  ****** ****** ****** ****** ****** ****** ****** ****** ****** ******
      ****** ****** ****** ****** ****** ****** ****** ****** ****** ******
      ****** ****** ****** ****** ****** ****** ****** ****** ****** ******
  25  ****** ****** ****** ****** ****** ****** ****** ****** ****** ******
      ****** ****** ****** ****** ****** ****** ****** ****** ****** ******
      ****** ****** ****** ****** ****** ****** ****** ****** ****** ******

 HEAD WILL BE SAVED ON UNIT   51 AT END OF TIME STEP    1, STRESS PERIOD    2
1
  VOLUMETRIC BUDGET FOR ENTIRE MODEL AT END OF TIME STEP    1, STRESS PERIOD   2
  ------------------------------------------------------------------------------

     CUMULATIVE VOLUMES      L**3       RATES FOR THIS TIME STEP      L**3/T
     ------------------                 ------------------------

           IN:                                      IN:
           ---                                      ---
             STORAGE =    22932761.5051               STORAGE =       39347.7547
       CONSTANT HEAD =    23253574.0874         CONSTANT HEAD =      138812.5286
               WELLS =           0.0000                 WELLS =           0.0000
            RECHARGE =     6292800.0000              RECHARGE =       55200.0000
      STREAM LEAKAGE =     6238497.4081        STREAM LEAKAGE =       48565.2835

            TOTAL IN =    58717633.0006              TOTAL IN =      281925.5668

          OUT:                                     OUT:
          ----                                     ----
             STORAGE =           0.0000               STORAGE =           0.0000
       CONSTANT HEAD =           0.0000         CONSTANT HEAD =           0.0000
               WELLS =    27450000.0000                 WELLS =      150000.0000
            RECHARGE =           0.0000              RECHARGE =           0.0000
      STREAM LEAKAGE =    31267633.5984        STREAM LEAKAGE =      131925.5718

           TOTAL OUT =    58717633.5984             TOTAL OUT =      281925.5718

            IN - OUT =          -0.5977              IN - OUT =      -4.9300E-03

 PERCENT DISCREPANCY =          -0.00     PERCENT DISCREPANCY =          -0.00






         TIME SUMMARY AT END OF TIME STEP    1 IN STRESS PERIOD    2
                    SECONDS     MINUTES      HOURS       DAYS        YEARS
                    -----------------------------------------------------------
   TIME STEP LENGTH 7.86240E+06 1.31040E+05  2184.0      91.000     0.24914    
 STRESS PERIOD TIME 7.86240E+06 1.31040E+05  2184.0      91.000     0.24914    
         TOTAL TIME 1.58112E+07 2.63520E+05  4392.0      183.00     0.50103    
1
1
                            STRESS PERIOD NO.    3, LENGTH =   91.00000    
                            -----------------------------------------------

                              NUMBER OF TIME STEPS =     1

                               MULTIPLIER FOR DELT =     1.500

                            INITIAL TIME STEP SIZE =   91.00000    

 WELL NO.  LAYER   ROW   COL   STRESS RATE         
 --------------------------------------------------
      1      1     18     24     -0.5000E+05
      2      1     19     27     -0.5000E+05
      3      1     21     24     -0.5000E+05

      3 WELLS

                 RECHARGE =   0.00000    

 REUSING STREAM SEGMENT DATA FROM LAST STRESS PERIOD
 
 SOLVING FOR HEAD 


     7 CALLS TO PCG ROUTINE FOR TIME STEP   1 IN STRESS PERIOD    3
    27 TOTAL ITERATIONS

 OUTPUT CONTROL FOR STRESS PERIOD    3   TIME STEP    1
    SAVE BUDGET
    SAVE HEAD FOR ALL LAYERS
    PRINT HEAD FOR ALL LAYERS
 UBDSV2 SAVING "STREAMFLOW OUT  " ON UNIT  50 AT TIME STEP  1, STRESS PERIOD   3



 STREAM LISTING     PERIOD      3   STEP        1

 LAYER ROW COL. STREAM  RCH.  FLOW INTO     FLOW TO   FLOW OUT OF   OVRLND.     DIRECT     STREAM       STREAM     STREAM     STREAM   STREAMBED  STREAMBED
                SEG.NO.  NO.  STRM. RCH.    AQUIFER    STRM. RCH.    RUNOFF     PRECIP       ET          HEAD       DEPTH      WIDTH   CONDCTNC.   GRADIENT

   1   13    1     1     1    1.0000E+05 -2.9397E+03   1.0294E+05  0.000E+00  0.000E+00  0.000E+00  4.84073E+01  1.459E-01  2.000E+01  2.000E+04 -1.470E-01
   1   13    2     1     2    1.0294E+05 -4.9558E+03   1.0790E+05  0.000E+00  0.000E+00  0.000E+00  4.79334E+01  1.493E-01  2.000E+01  2.000E+04 -2.478E-01
   1   14    3     1     3    1.0790E+05 -3.9275E+03   1.1182E+05  0.000E+00  0.000E+00  0.000E+00  4.74599E+01  1.530E-01  2.000E+01  2.000E+04 -1.964E-01
   1   15    4     1     4    1.1182E+05 -3.7942E+03   1.1562E+05  0.000E+00  0.000E+00  0.000E+00  4.69858E+01  1.563E-01  2.000E+01  2.000E+04 -1.897E-01
   1   16    5     1     5    1.1562E+05 -4.0755E+03   1.1969E+05  0.000E+00  0.000E+00  0.000E+00  4.65117E+01  1.595E-01  2.000E+01  2.000E+04 -2.038E-01
   1   16    6     1     6    1.1969E+05 -3.2320E+03   1.2292E+05  0.000E+00  0.000E+00  0.000E+00  4.60374E+01  1.624E-01  2.000E+01  2.000E+04 -1.616E-01
   1   16    7     1     7    1.2292E+05 -3.2989E+03   1.2622E+05  0.000E+00  0.000E+00  0.000E+00  4.55628E+01  1.650E-01  2.000E+01  2.000E+04 -1.649E-01
   1   16    8     1     8    1.2622E+05 -3.3267E+03   1.2955E+05  0.000E+00  0.000E+00  0.000E+00  4.50881E+01  1.677E-01  2.000E+01  2.000E+04 -1.663E-01
   1   16    9     1     9    1.2955E+05 -3.2995E+03   1.3285E+05  0.000E+00  0.000E+00  0.000E+00  4.46134E+01  1.702E-01  2.000E+01  2.000E+04 -1.650E-01
   1   16   10     1    10    1.3285E+05 -3.2142E+03   1.3606E+05  0.000E+00  0.000E+00  0.000E+00  4.41387E+01  1.728E-01  2.000E+01  2.000E+04 -1.607E-01
   1   16   11     1    11    1.3606E+05 -3.0764E+03   1.3914E+05  0.000E+00  0.000E+00  0.000E+00  4.36638E+01  1.752E-01  2.000E+01  2.000E+04 -1.538E-01
   1   16   12     1    12    1.3914E+05 -3.6618E+03   1.4280E+05  0.000E+00  0.000E+00  0.000E+00  4.31891E+01  1.777E-01  2.000E+01  2.000E+04 -1.831E-01
   1   15   13     1    13    1.4280E+05 -3.3317E+03   1.4613E+05  0.000E+00  0.000E+00  0.000E+00  4.27145E+01  1.804E-01  2.000E+01  2.000E+04 -1.666E-01
   1   14   14     1    14    1.4613E+05 -3.3783E+03   1.4951E+05  0.000E+00  0.000E+00  0.000E+00  4.22397E+01  1.829E-01  2.000E+01  2.000E+04 -1.689E-01
   1   13   15     1    15    1.4951E+05 -3.7596E+03   1.5327E+05  0.000E+00  0.000E+00  0.000E+00  4.17651E+01  1.855E-01  2.000E+01  2.000E+04 -1.880E-01
   1   12   16     1    16    1.5327E+05 -5.3118E+03   1.5858E+05  0.000E+00  0.000E+00  0.000E+00  4.12911E+01  1.888E-01  2.000E+01  2.000E+04 -2.656E-01
   1   12   17     1    17    1.5858E+05 -3.2163E+03   1.6180E+05  0.000E+00  0.000E+00  0.000E+00  4.08169E+01  1.919E-01  2.000E+01  2.000E+04 -1.608E-01
   1   12   18     1    18    1.6180E+05 -2.9929E+03   1.6479E+05  0.000E+00  0.000E+00  0.000E+00  4.03419E+01  1.941E-01  2.000E+01  2.000E+04 -1.496E-01
   1   12   19     1    19    1.6479E+05 -4.1078E+03   1.6890E+05  0.000E+00  0.000E+00  0.000E+00  3.98671E+01  1.967E-01  2.000E+01  2.000E+04 -2.054E-01
   1   13   20     1    20    1.6890E+05 -1.5861E+03   1.7049E+05  0.000E+00  0.000E+00  0.000E+00  3.93918E+01  1.987E-01  2.000E+01  2.000E+04 -7.930E-02
   1   14   21     1    21    1.7049E+05  1.2243E+03   1.6926E+05  0.000E+00  0.000E+00  0.000E+00  3.89147E+01  1.988E-01  2.000E+01  2.000E+04  6.121E-02
   1   14   22     1    22    1.6926E+05  5.8784E+03   1.6338E+05  0.000E+00  0.000E+00  0.000E+00  3.84349E+01  1.963E-01  2.000E+01  2.000E+04  2.939E-01
   1    9   30     2     1    5.0000E+04 -2.6635E+03   5.2664E+04  0.000E+00  0.000E+00  0.000E+00  4.02427E+01  1.177E-01  2.000E+01  2.000E+04 -1.332E-01
   1    9   29     2     2    5.2664E+04 -2.9992E+03   5.5663E+04  0.000E+00  0.000E+00  0.000E+00  3.99966E+01  1.216E-01  2.000E+01  2.000E+04 -1.500E-01
   1    9   28     2     3    5.5663E+04 -3.3896E+03   5.9052E+04  0.000E+00  0.000E+00  0.000E+00  3.97508E+01  1.258E-01  2.000E+01  2.000E+04 -1.695E-01
   1    9   27     2     4    5.9052E+04 -6.1406E+03   6.5193E+04  0.000E+00  0.000E+00  0.000E+00  3.95070E+01  1.320E-01  2.000E+01  2.000E+04 -3.070E-01
   1   10   26     2     5    6.5193E+04 -3.7309E+03   6.8924E+04  0.000E+00  0.000E+00  0.000E+00  3.92632E+01  1.382E-01  2.000E+01  2.000E+04 -1.865E-01
   1   11   25     2     6    6.8924E+04 -2.6683E+03   7.1592E+04  0.000E+00  0.000E+00  0.000E+00  3.90171E+01  1.421E-01  2.000E+01  2.000E+04 -1.334E-01
   1   12   24     2     7    7.1592E+04 -1.7953E+03   7.3387E+04  0.000E+00  0.000E+00  0.000E+00  3.87698E+01  1.448E-01  2.000E+01  2.000E+04 -8.977E-02
   1   13   23     2     8    7.3387E+04 -9.1315E+02   7.4300E+04  0.000E+00  0.000E+00  0.000E+00  3.85214E+01  1.464E-01  2.000E+01  2.000E+04 -4.566E-02
   1   14   22     2     9    7.4300E+04  2.5881E+03   7.1712E+04  0.000E+00  0.000E+00  0.000E+00  3.82704E+01  1.454E-01  2.000E+01  2.000E+04  1.294E-01
   1   14   22     3     1    2.3510E+05 -7.6605E+03   2.4276E+05  0.000E+00  0.000E+00  0.000E+00  3.77580E+01  2.024E-01  2.000E+01  2.000E+04 -3.830E-01
   1   15   23     3     2    2.4276E+05  6.4218E+03   2.3633E+05  0.000E+00  0.000E+00  0.000E+00  3.68694E+01  2.027E-01  2.000E+01  2.000E+04  3.211E-01
   1   15   24     3     3    2.3633E+05  6.0763E+03   2.3026E+05  0.000E+00  0.000E+00  0.000E+00  3.59773E+01  1.995E-01  2.000E+01  2.000E+04  3.038E-01
   1   15   25     3     4    2.3026E+05  5.0528E+03   2.2521E+05  0.000E+00  0.000E+00  0.000E+00  3.50856E+01  1.967E-01  2.000E+01  2.000E+04  2.526E-01
   1   15   26     3     5    2.2521E+05  2.6088E+03   2.2260E+05  0.000E+00  0.000E+00  0.000E+00  3.41947E+01  1.947E-01  2.000E+01  2.000E+04  1.304E-01
   1   16   27     3     6    2.2260E+05  8.3525E+03   2.1424E+05  0.000E+00  0.000E+00  0.000E+00  3.33029E+01  1.918E-01  2.000E+01  2.000E+04  4.176E-01
   1   17   28     3     7    2.1424E+05  1.0967E+04   2.0328E+05  0.000E+00  0.000E+00  0.000E+00  3.24089E+01  1.867E-01  2.000E+01  2.000E+04  5.483E-01
   1   18   29     3     8    2.0328E+05  9.9103E+03   1.9337E+05  0.000E+00  0.000E+00  0.000E+00  3.15144E+01  1.810E-01  2.000E+01  2.000E+04  4.955E-01
   1   18   30     3     9    1.9337E+05  9.8405E+02   1.9238E+05  0.000E+00  0.000E+00  0.000E+00  3.06225E+01  1.780E-01  2.000E+01  2.000E+04  4.920E-02



1
              HEAD IN LAYER   1 AT END OF TIME STEP   1 IN STRESS PERIOD    3
  ---------------------------------------------------------------------------

          1      2      3      4      5      6      7      8      9     10
         11     12     13     14     15     16     17     18     19     20
         21     22     23     24     25     26     27     28     29     30
 .........................................................................
   1  ****** ****** ****** ****** ****** ****** ****** ****** ****** ******
      ****** ****** ****** ****** ****** ****** ****** ****** ****** ******
      ****** ****** ****** ****** ****** ****** ****** ****** ****** ******
   2  ****** ****** ****** ****** ****** ****** ****** ****** ****** ******
      ****** ****** ****** ****** ****** ****** ****** ****** ****** ******
      ****** ****** ****** ****** ****** ****** ****** ****** ****** ******
   3  ****** ****** ****** ****** ****** ****** ****** ****** ****** ******
      ****** ****** ****** ****** ****** ****** ****** ****** ****** ******
      ****** ****** ****** ****** ****** ****** ****** ****** ****** ******
   4  ****** ****** ****** ****** ****** ****** ****** ****** ****** ******
      ****** ****** ****** ****** ****** ****** ****** ****** ****** ******
      ****** ****** ****** ****** ****** ****** ****** ****** ****** ******
   5  ****** ****** ****** ****** ****** ****** ****** ****** ****** ******
      ****** ****** ****** ****** ****** ****** ****** ****** ****** ******
      ****** ****** ****** ****** ****** ****** ****** ****** ****** ******
   6  ****** ****** ****** ****** ****** ****** ****** ****** ****** ******
      ****** ****** ****** ****** ****** ****** ****** ****** ****** ******
      ****** ****** ****** ****** ****** ****** ****** ****** ****** ******
   7  ****** ****** ****** ****** ****** ****** ****** ****** ****** ******
      ****** ****** ****** ****** ****** ****** ****** ****** ****** ******
      ****** ****** ****** ****** ****** ****** ****** ****** ****** ******
   8  ****** ****** ****** ****** ****** ****** ****** ****** ****** ******
      ****** ****** ****** ****** ****** ****** ****** ****** ****** ******
      ****** ****** ****** ****** ****** ****** ****** ****** ****** ******
   9  ****** ****** ****** ****** ****** ****** ****** ****** ****** ******
      ****** ****** ****** ****** ****** ****** ****** ****** ****** ******
      ****** ****** ****** ****** ****** ****** ****** ****** ****** ******
  10  ****** ****** ****** ****** ****** ****** ****** ****** ****** ******
      ****** ****** ****** ****** ****** ****** ****** ****** ****** ******
      ****** ****** ****** ****** ****** ****** ****** ****** ****** ******
  11  ****** ****** ****** ****** ****** ****** ****** ****** ****** ******
      ****** ****** ****** ****** ****** ****** ****** ****** ****** ******
      ****** ****** ****** ****** ****** ****** ****** ****** ****** ******
  12  ****** ****** ****** ****** ****** ****** ****** ****** ****** ******
      ****** ****** ****** ****** ****** ****** ****** ****** ****** ******
      ****** ****** ****** ****** ****** ****** ****** ****** ****** ******
  13  ****** ****** ****** ****** ****** ****** ****** ****** ****** ******
      ****** ****** ****** ****** ****** ****** ****** ****** ****** ******
      ****** ****** ****** ****** ****** ****** ****** ****** ****** ******
  14  ****** ****** ****** ****** ****** ****** ****** ****** ****** ******
      ****** ****** ****** ****** ****** ****** ****** ****** ****** ******
      ****** ****** ****** ****** ****** ****** ****** ****** ****** ******
  15  ****** ****** ****** ****** ****** ****** ****** ****** ****** ******
      ****** ****** ****** ****** ****** ****** ****** ****** ****** ******
      ****** ****** ****** ****** ****** ****** ****** ****** ****** ******
  16  ****** ****** ****** ****** ****** ****** ****** ****** ****** ******
      ****** ****** ****** ****** ****** ****** ****** ****** ****** ******
      ****** ****** ****** ****** ****** ****** ****** ****** ****** ******
  17  ****** ****** ****** ****** ****** ****** ****** ****** ****** ******
      ****** ****** ****** ****** ****** ****** ****** ****** ****** ******
      ****** ****** ****** ****** ****** ****** ****** ****** ****** ******
  18  ****** ****** ****** ****** ****** ****** ****** ****** ****** ******
      ****** ****** ****** ****** ****** ****** ****** ****** ****** ******
      ****** ****** ****** ****** ****** ****** ****** ****** ****** ******
  19  ****** ****** ****** ****** ****** ****** ****** ****** ****** ******
      ****** ****** ****** ****** ****** ****** ****** ****** ****** ******
      ****** ****** ****** ****** ****** ****** ****** ****** ****** ******
  20  ****** ****** ****** ****** ****** ****** ****** ****** ****** ******
      ****** ****** ****** ****** ****** ****** ****** ****** ****** ******
      ****** ****** ****** ****** ****** ****** ****** ****** ****** ******
  21  ****** ****** ****** ****** ****** ****** ****** ****** ****** ******
      ****** ****** ****** ****** ****** ****** ****** ****** ****** ******
      ****** ****** ****** ****** ****** ****** ****** ****** ****** ******
  22  ****** ****** ****** ****** ****** ****** ****** ****** ****** ******
      ****** ****** ****** ****** ****** ****** ****** ****** ****** ******
      ****** ****** ****** ****** ****** ****** ****** ****** ****** ******
  23  ****** ****** ****** ****** ****** ****** ****** ****** ****** ******
      ****** ****** ****** ****** ****** ****** ****** ****** ****** ******
      ****** ****** ****** ****** ****** ****** ****** ****** ****** ******
  24  ****** ****** ****** ****** ****** ****** ****** ****** ****** ******
      ****** ****** ****** ****** ****** ****** ****** ****** ****** ******
      ****** ****** ****** ****** ****** ****** ****** ****** ****** ******
  25  ****** ****** ****** ****** ****** ****** ****** ****** ****** ******
      ****** ****** ****** ****** ****** ****** ****** ****** ****** ******
      ****** ****** ****** ****** ****** ****** ****** ****** ****** ******

 HEAD WILL BE SAVED ON UNIT   51 AT END OF TIME STEP    1, STRESS PERIOD    3
1
  VOLUMETRIC BUDGET FOR ENTIRE MODEL AT END OF TIME STEP    1, STRESS PERIOD   3
  ------------------------------------------------------------------------------

     CUMULATIVE VOLUMES      L**3       RATES FOR THIS TIME STEP      L**3/T
     ------------------                 ------------------------

           IN:                                      IN:
           ---                                      ---
             STORAGE =    25471615.5019               STORAGE =       27899.4945
       CONSTANT HEAD =    38221617.2852         CONSTANT HEAD =      164483.9912
               WELLS =           0.0000                 WELLS =           0.0000
            RECHARGE =     6292800.0000              RECHARGE =           0.0000
      STREAM LEAKAGE =    11704323.8218        STREAM LEAKAGE =       60064.0265

            TOTAL IN =    81690356.6089              TOTAL IN =      252447.5122

          OUT:                                     OUT:
          ----                                     ----
             STORAGE =           0.0000               STORAGE =           0.0000
       CONSTANT HEAD =           0.0000         CONSTANT HEAD =           0.0000
               WELLS =    41100000.0000                 WELLS =      150000.0000
            RECHARGE =           0.0000              RECHARGE =           0.0000
      STREAM LEAKAGE =    40590357.4424        STREAM LEAKAGE =      102447.5148

           TOTAL OUT =    81690357.4424             TOTAL OUT =      252447.5148

            IN - OUT =          -0.8335              IN - OUT =      -2.5909E-03

 PERCENT DISCREPANCY =          -0.00     PERCENT DISCREPANCY =          -0.00






         TIME SUMMARY AT END OF TIME STEP    1 IN STRESS PERIOD    3
                    SECONDS     MINUTES      HOURS       DAYS        YEARS
                    -----------------------------------------------------------
   TIME STEP LENGTH 7.86240E+06 1.31040E+05  2184.0      91.000     0.24914    
 STRESS PERIOD TIME 7.86240E+06 1.31040E+05  2184.0      91.000     0.24914    
         TOTAL TIME 2.36736E+07 3.94560E+05  6576.0      274.00     0.75017    
1
1
                            STRESS PERIOD NO.    4, LENGTH =   91.00000    
                            -----------------------------------------------

                              NUMBER OF TIME STEPS =     1

                               MULTIPLIER FOR DELT =     1.500

                            INITIAL TIME STEP SIZE =   91.00000    

 WELL NO.  LAYER   ROW   COL   STRESS RATE         
 --------------------------------------------------
      1      1     18     24     -0.5000E+05
      2      1     19     27     -0.5000E+05
      3      1     21     24     -0.5000E+05

      3 WELLS

                 RECHARGE =  1.000000E-03

 REUSING STREAM SEGMENT DATA FROM LAST STRESS PERIOD
 
 SOLVING FOR HEAD 


     6 CALLS TO PCG ROUTINE FOR TIME STEP   1 IN STRESS PERIOD    4
    21 TOTAL ITERATIONS

 OUTPUT CONTROL FOR STRESS PERIOD    4   TIME STEP    1
    SAVE BUDGET
    SAVE HEAD FOR ALL LAYERS
    PRINT HEAD FOR ALL LAYERS
 UBDSV2 SAVING "STREAMFLOW OUT  " ON UNIT  50 AT TIME STEP  1, STRESS PERIOD   4



 STREAM LISTING     PERIOD      4   STEP        1

 LAYER ROW COL. STREAM  RCH.  FLOW INTO     FLOW TO   FLOW OUT OF   OVRLND.     DIRECT     STREAM       STREAM     STREAM     STREAM   STREAMBED  STREAMBED
                SEG.NO.  NO.  STRM. RCH.    AQUIFER    STRM. RCH.    RUNOFF     PRECIP       ET          HEAD       DEPTH      WIDTH   CONDCTNC.   GRADIENT

   1   13    1     1     1    1.0000E+05 -2.9643E+03   1.0296E+05  0.000E+00  0.000E+00  0.000E+00  4.84073E+01  1.459E-01  2.000E+01  2.000E+04 -1.482E-01
   1   13    2     1     2    1.0296E+05 -4.9510E+03   1.0792E+05  0.000E+00  0.000E+00  0.000E+00  4.79334E+01  1.493E-01  2.000E+01  2.000E+04 -2.475E-01
   1   14    3     1     3    1.0792E+05 -3.9776E+03   1.1189E+05  0.000E+00  0.000E+00  0.000E+00  4.74599E+01  1.531E-01  2.000E+01  2.000E+04 -1.989E-01
   1   15    4     1     4    1.1189E+05 -3.8611E+03   1.1575E+05  0.000E+00  0.000E+00  0.000E+00  4.69859E+01  1.563E-01  2.000E+01  2.000E+04 -1.931E-01
   1   16    5     1     5    1.1575E+05 -4.1491E+03   1.1990E+05  0.000E+00  0.000E+00  0.000E+00  4.65119E+01  1.596E-01  2.000E+01  2.000E+04 -2.075E-01
   1   16    6     1     6    1.1990E+05 -3.2851E+03   1.2319E+05  0.000E+00  0.000E+00  0.000E+00  4.60376E+01  1.626E-01  2.000E+01  2.000E+04 -1.643E-01
   1   16    7     1     7    1.2319E+05 -3.3468E+03   1.2653E+05  0.000E+00  0.000E+00  0.000E+00  4.55630E+01  1.653E-01  2.000E+01  2.000E+04 -1.673E-01
   1   16    8     1     8    1.2653E+05 -3.3703E+03   1.2991E+05  0.000E+00  0.000E+00  0.000E+00  4.50884E+01  1.679E-01  2.000E+01  2.000E+04 -1.685E-01
   1   16    9     1     9    1.2991E+05 -3.3396E+03   1.3324E+05  0.000E+00  0.000E+00  0.000E+00  4.46137E+01  1.705E-01  2.000E+01  2.000E+04 -1.670E-01
   1   16   10     1    10    1.3324E+05 -3.2508E+03   1.3650E+05  0.000E+00  0.000E+00  0.000E+00  4.41390E+01  1.731E-01  2.000E+01  2.000E+04 -1.625E-01
   1   16   11     1    11    1.3650E+05 -3.1073E+03   1.3960E+05  0.000E+00  0.000E+00  0.000E+00  4.36642E+01  1.755E-01  2.000E+01  2.000E+04 -1.554E-01
   1   16   12     1    12    1.3960E+05 -3.6658E+03   1.4327E+05  0.000E+00  0.000E+00  0.000E+00  4.31895E+01  1.781E-01  2.000E+01  2.000E+04 -1.833E-01
   1   15   13     1    13    1.4327E+05 -3.3333E+03   1.4660E+05  0.000E+00  0.000E+00  0.000E+00  4.27148E+01  1.807E-01  2.000E+01  2.000E+04 -1.667E-01
   1   14   14     1    14    1.4660E+05 -3.3743E+03   1.4998E+05  0.000E+00  0.000E+00  0.000E+00  4.22400E+01  1.832E-01  2.000E+01  2.000E+04 -1.687E-01
   1   13   15     1    15    1.4998E+05 -3.7588E+03   1.5374E+05  0.000E+00  0.000E+00  0.000E+00  4.17654E+01  1.859E-01  2.000E+01  2.000E+04 -1.879E-01
   1   12   16     1    16    1.5374E+05 -5.3043E+03   1.5904E+05  0.000E+00  0.000E+00  0.000E+00  4.12914E+01  1.892E-01  2.000E+01  2.000E+04 -2.652E-01
   1   12   17     1    17    1.5904E+05 -3.2314E+03   1.6227E+05  0.000E+00  0.000E+00  0.000E+00  4.08172E+01  1.922E-01  2.000E+01  2.000E+04 -1.616E-01
   1   12   18     1    18    1.6227E+05 -3.0146E+03   1.6529E+05  0.000E+00  0.000E+00  0.000E+00  4.03422E+01  1.945E-01  2.000E+01  2.000E+04 -1.507E-01
   1   12   19     1    19    1.6529E+05 -4.1495E+03   1.6943E+05  0.000E+00  0.000E+00  0.000E+00  3.98675E+01  1.970E-01  2.000E+01  2.000E+04 -2.075E-01
   1   13   20     1    20    1.6943E+05 -1.6247E+03   1.7106E+05  0.000E+00  0.000E+00  0.000E+00  3.93922E+01  1.991E-01  2.000E+01  2.000E+04 -8.123E-02
   1   14   21     1    21    1.7106E+05  1.2495E+03   1.6981E+05  0.000E+00  0.000E+00  0.000E+00  3.89151E+01  1.992E-01  2.000E+01  2.000E+04  6.247E-02
   1   14   22     1    22    1.6981E+05  5.8595E+03   1.6395E+05  0.000E+00  0.000E+00  0.000E+00  3.84353E+01  1.967E-01  2.000E+01  2.000E+04  2.930E-01
   1    9   30     2     1    5.0000E+04 -2.7750E+03   5.2775E+04  0.000E+00  0.000E+00  0.000E+00  4.02428E+01  1.178E-01  2.000E+01  2.000E+04 -1.388E-01
   1    9   29     2     2    5.2775E+04 -3.1091E+03   5.5884E+04  0.000E+00  0.000E+00  0.000E+00  3.99968E+01  1.218E-01  2.000E+01  2.000E+04 -1.555E-01
   1    9   28     2     3    5.5884E+04 -3.4955E+03   5.9380E+04  0.000E+00  0.000E+00  0.000E+00  3.97512E+01  1.262E-01  2.000E+01  2.000E+04 -1.748E-01
   1    9   27     2     4    5.9380E+04 -6.2507E+03   6.5630E+04  0.000E+00  0.000E+00  0.000E+00  3.95075E+01  1.325E-01  2.000E+01  2.000E+04 -3.125E-01
   1   10   26     2     5    6.5630E+04 -3.8588E+03   6.9489E+04  0.000E+00  0.000E+00  0.000E+00  3.92638E+01  1.388E-01  2.000E+01  2.000E+04 -1.929E-01
   1   11   25     2     6    6.9489E+04 -2.7970E+03   7.2286E+04  0.000E+00  0.000E+00  0.000E+00  3.90179E+01  1.429E-01  2.000E+01  2.000E+04 -1.398E-01
   1   12   24     2     7    7.2286E+04 -1.9209E+03   7.4207E+04  0.000E+00  0.000E+00  0.000E+00  3.87707E+01  1.457E-01  2.000E+01  2.000E+04 -9.604E-02
   1   13   23     2     8    7.4207E+04 -1.0249E+03   7.5232E+04  0.000E+00  0.000E+00  0.000E+00  3.85224E+01  1.474E-01  2.000E+01  2.000E+04 -5.125E-02
   1   14   22     2     9    7.5232E+04  2.5835E+03   7.2648E+04  0.000E+00  0.000E+00  0.000E+00  3.82715E+01  1.465E-01  2.000E+01  2.000E+04  1.292E-01
   1   14   22     3     1    2.3660E+05 -7.6721E+03   2.4427E+05  0.000E+00  0.000E+00  0.000E+00  3.77587E+01  2.032E-01  2.000E+01  2.000E+04 -3.836E-01
   1   15   23     3     2    2.4427E+05  6.4831E+03   2.3779E+05  0.000E+00  0.000E+00  0.000E+00  3.68702E+01  2.035E-01  2.000E+01  2.000E+04  3.242E-01
   1   15   24     3     3    2.3779E+05  6.0742E+03   2.3171E+05  0.000E+00  0.000E+00  0.000E+00  3.59781E+01  2.003E-01  2.000E+01  2.000E+04  3.037E-01
   1   15   25     3     4    2.3171E+05  5.0232E+03   2.2669E+05  0.000E+00  0.000E+00  0.000E+00  3.50863E+01  1.974E-01  2.000E+01  2.000E+04  2.512E-01
   1   15   26     3     5    2.2669E+05  2.5255E+03   2.2416E+05  0.000E+00  0.000E+00  0.000E+00  3.41955E+01  1.955E-01  2.000E+01  2.000E+04  1.263E-01
   1   16   27     3     6    2.2416E+05  8.3116E+03   2.1585E+05  0.000E+00  0.000E+00  0.000E+00  3.33038E+01  1.926E-01  2.000E+01  2.000E+04  4.156E-01
   1   17   28     3     7    2.1585E+05  1.0944E+04   2.0491E+05  0.000E+00  0.000E+00  0.000E+00  3.24098E+01  1.875E-01  2.000E+01  2.000E+04  5.472E-01
   1   18   29     3     8    2.0491E+05  9.9299E+03   1.9498E+05  0.000E+00  0.000E+00  0.000E+00  3.15152E+01  1.819E-01  2.000E+01  2.000E+04  4.965E-01
   1   18   30     3     9    1.9498E+05  9.5108E+02   1.9403E+05  0.000E+00  0.000E+00  0.000E+00  3.06234E+01  1.789E-01  2.000E+01  2.000E+04  4.755E-02



1
              HEAD IN LAYER   1 AT END OF TIME STEP   1 IN STRESS PERIOD    4
  ---------------------------------------------------------------------------

          1      2      3      4      5      6      7      8      9     10
         11     12     13     14     15     16     17     18     19     20
         21     22     23     24     25     26     27     28     29     30
 .........................................................................
   1  ****** ****** ****** ****** ****** ****** ****** ****** ****** ******
      ****** ****** ****** ****** ****** ****** ****** ****** ****** ******
      ****** ****** ****** ****** ****** ****** ****** ****** ****** ******
   2  ****** ****** ****** ****** ****** ****** ****** ****** ****** ******
      ****** ****** ****** ****** ****** ****** ****** ****** ****** ******
      ****** ****** ****** ****** ****** ****** ****** ****** ****** ******
   3  ****** ****** ****** ****** ****** ****** ****** ****** ****** ******
      ****** ****** ****** ****** ****** ****** ****** ****** ****** ******
      ****** ****** ****** ****** ****** ****** ****** ****** ****** ******
   4  ****** ****** ****** ****** ****** ****** ****** ****** ****** ******
      ****** ****** ****** ****** ****** ****** ****** ****** ****** ******
      ****** ****** ****** ****** ****** ****** ****** ****** ****** ******
   5  ****** ****** ****** ****** ****** ****** ****** ****** ****** ******
      ****** ****** ****** ****** ****** ****** ****** ****** ****** ******
      ****** ****** ****** ****** ****** ****** ****** ****** ****** ******
   6  ****** ****** ****** ****** ****** ****** ****** ****** ****** ******
      ****** ****** ****** ****** ****** ****** ****** ****** ****** ******
      ****** ****** ****** ****** ****** ****** ****** ****** ****** ******
   7  ****** ****** ****** ****** ****** ****** ****** ****** ****** ******
      ****** ****** ****** ****** ****** ****** ****** ****** ****** ******
      ****** ****** ****** ****** ****** ****** ****** ****** ****** ******
   8  ****** ****** ****** ****** ****** ****** ****** ****** ****** ******
      ****** ****** ****** ****** ****** ****** ****** ****** ****** ******
      ****** ****** ****** ****** ****** ****** ****** ****** ****** ******
   9  ****** ****** ****** ****** ****** ****** ****** ****** ****** ******
      ****** ****** ****** ****** ****** ****** ****** ****** ****** ******
      ****** ****** ****** ****** ****** ****** ****** ****** ****** ******
  10  ****** ****** ****** ****** ****** ****** ****** ****** ****** ******
      ****** ****** ****** ****** ****** ****** ****** ****** ****** ******
      ****** ****** ****** ****** ****** ****** ****** ****** ****** ******
  11  ****** ****** ****** ****** ****** ****** ****** ****** ****** ******
      ****** ****** ****** ****** ****** ****** ****** ****** ****** ******
      ****** ****** ****** ****** ****** ****** ****** ****** ****** ******
  12  ****** ****** ****** ****** ****** ****** ****** ****** ****** ******
      ****** ****** ****** ****** ****** ****** ****** ****** ****** ******
      ****** ****** ****** ****** ****** ****** ****** ****** ****** ******
  13  ****** ****** ****** ****** ****** ****** ****** ****** ****** ******
      ****** ****** ****** ****** ****** ****** ****** ****** ****** ******
      ****** ****** ****** ****** ****** ****** ****** ****** ****** ******
  14  ****** ****** ****** ****** ****** ****** ****** ****** ****** ******
      ****** ****** ****** ****** ****** ****** ****** ****** ****** ******
      ****** ****** ****** ****** ****** ****** ****** ****** ****** ******
  15  ****** ****** ****** ****** ****** ****** ****** ****** ****** ******
      ****** ****** ****** ****** ****** ****** ****** ****** ****** ******
      ****** ****** ****** ****** ****** ****** ****** ****** ****** ******
  16  ****** ****** ****** ****** ****** ****** ****** ****** ****** ******
      ****** ****** ****** ****** ****** ****** ****** ****** ****** ******
      ****** ****** ****** ****** ****** ****** ****** ****** ****** ******
  17  ****** ****** ****** ****** ****** ****** ****** ****** ****** ******
      ****** ****** ****** ****** ****** ****** ****** ****** ****** ******
      ****** ****** ****** ****** ****** ****** ****** ****** ****** ******
  18  ****** ****** ****** ****** ****** ****** ****** ****** ****** ******
      ****** ****** ****** ****** ****** ****** ****** ****** ****** ******
      ****** ****** ****** ****** ****** ****** ****** ****** ****** ******
  19  ****** ****** ****** ****** ****** ****** ****** ****** ****** ******
      ****** ****** ****** ****** ****** ****** ****** ****** ****** ******
      ****** ****** ****** ****** ****** ****** ****** ****** ****** ******
  20  ****** ****** ****** ****** ****** ****** ****** ****** ****** ******
      ****** ****** ****** ****** ****** ****** ****** ****** ****** ******
      ****** ****** ****** ****** ****** ****** ****** ****** ****** ******
  21  ****** ****** ****** ****** ****** ****** ****** ****** ****** ******
      ****** ****** ****** ****** ****** ****** ****** ****** ****** ******
      ****** ****** ****** ****** ****** ****** ****** ****** ****** ******
  22  ****** ****** ****** ****** ****** ****** ****** ****** ****** ******
      ****** ****** ****** ****** ****** ****** ****** ****** ****** ******
      ****** ****** ****** ****** ****** ****** ****** ****** ****** ******
  23  ****** ****** ****** ****** ****** ****** ****** ****** ****** ******
      ****** ****** ****** ****** ****** ****** ****** ****** ****** ******
      ****** ****** ****** ****** ****** ****** ****** ****** ****** ******
  24  ****** ****** ****** ****** ****** ****** ****** ****** ****** ******
      ****** ****** ****** ****** ****** ****** ****** ****** ****** ******
      ****** ****** ****** ****** ****** ****** ****** ****** ****** ******
  25  ****** ****** ****** ****** ****** ****** ****** ****** ****** ******
      ****** ****** ****** ****** ****** ****** ****** ****** ****** ******
      ****** ****** ****** ****** ****** ****** ****** ****** ****** ******

 HEAD WILL BE SAVED ON UNIT   51 AT END OF TIME STEP    1, STRESS PERIOD    4
1
  VOLUMETRIC BUDGET FOR ENTIRE MODEL AT END OF TIME STEP    1, STRESS PERIOD   4
  ------------------------------------------------------------------------------

     CUMULATIVE VOLUMES      L**3       RATES FOR THIS TIME STEP      L**3/T
     ------------------                 ------------------------

           IN:                                      IN:
           ---                                      ---
             STORAGE =    25656380.8357               STORAGE =        2030.3883
       CONSTANT HEAD =    53204643.5446         CONSTANT HEAD =      164648.6402
               WELLS =           0.0000                 WELLS =           0.0000
            RECHARGE =     8804400.0000              RECHARGE =       27600.0000
      STREAM LEAKAGE =    17158374.0174        STREAM LEAKAGE =       59934.6175

            TOTAL IN =   104823798.3976              TOTAL IN =      254213.6460

          OUT:                                     OUT:
          ----                                     ----
             STORAGE =       22776.9308               STORAGE =         250.2959
       CONSTANT HEAD =           0.0000         CONSTANT HEAD =           0.0000
               WELLS =    54750000.0000                 WELLS =      150000.0000
            RECHARGE =           0.0000              RECHARGE =           0.0000
      STREAM LEAKAGE =    50051022.1273        STREAM LEAKAGE =      103963.3482

           TOTAL OUT =   104823799.0582             TOTAL OUT =      254213.6441

            IN - OUT =          -0.6605              IN - OUT =       1.9012E-03

 PERCENT DISCREPANCY =          -0.00     PERCENT DISCREPANCY =           0.00






         TIME SUMMARY AT END OF TIME STEP    1 IN STRESS PERIOD    4
                    SECONDS     MINUTES      HOURS       DAYS        YEARS
                    -----------------------------------------------------------
   TIME STEP LENGTH 7.86240E+06 1.31040E+05  2184.0      91.000     0.24914    
 STRESS PERIOD TIME 7.86240E+06 1.31040E+05  2184.0      91.000     0.24914    
         TOTAL TIME 3.15360E+07 5.25600E+05  8760.0      365.00     0.99932    
1
1
                            STRESS PERIOD NO.    5, LENGTH =   92.00000    
                            -----------------------------------------------

                              NUMBER OF TIME STEPS =     1

                               MULTIPLIER FOR DELT =     1.500

                            INITIAL TIME STEP SIZE =   92.00000    

 WELL NO.  LAYER   ROW   COL   STRESS RATE         
 --------------------------------------------------
      1      1     18     24     -0.5000E+05
      2      1     19     27     -0.5000E+05
      3      1     21     24     -0.5000E+05

      3 WELLS

                 RECHARGE =  5.000000E-04

 REUSING STREAM SEGMENT DATA FROM LAST STRESS PERIOD
 
 SOLVING FOR HEAD 


     6 CALLS TO PCG ROUTINE FOR TIME STEP   1 IN STRESS PERIOD    5
    23 TOTAL ITERATIONS

 OUTPUT CONTROL FOR STRESS PERIOD    5   TIME STEP    1
    SAVE BUDGET
    SAVE HEAD FOR ALL LAYERS
    PRINT HEAD FOR ALL LAYERS
 UBDSV2 SAVING "STREAMFLOW OUT  " ON UNIT  50 AT TIME STEP  1, STRESS PERIOD   5



 STREAM LISTING     PERIOD      5   STEP        1

 LAYER ROW COL. STREAM  RCH.  FLOW INTO     FLOW TO   FLOW OUT OF   OVRLND.     DIRECT     STREAM       STREAM     STREAM     STREAM   STREAMBED  STREAMBED
                SEG.NO.  NO.  STRM. RCH.    AQUIFER    STRM. RCH.    RUNOFF     PRECIP       ET          HEAD       DEPTH      WIDTH   CONDCTNC.   GRADIENT

   1   13    1     1     1    1.0000E+05 -2.7911E+03   1.0279E+05  0.000E+00  0.000E+00  0.000E+00  4.84072E+01  1.459E-01  2.000E+01  2.000E+04 -1.396E-01
   1   13    2     1     2    1.0279E+05 -4.7109E+03   1.0750E+05  0.000E+00  0.000E+00  0.000E+00  4.79332E+01  1.491E-01  2.000E+01  2.000E+04 -2.355E-01
   1   14    3     1     3    1.0750E+05 -3.7538E+03   1.1126E+05  0.000E+00  0.000E+00  0.000E+00  4.74595E+01  1.526E-01  2.000E+01  2.000E+04 -1.877E-01
   1   15    4     1     4    1.1126E+05 -3.6482E+03   1.1490E+05  0.000E+00  0.000E+00  0.000E+00  4.69853E+01  1.557E-01  2.000E+01  2.000E+04 -1.824E-01
   1   16    5     1     5    1.1490E+05 -3.9627E+03   1.1887E+05  0.000E+00  0.000E+00  0.000E+00  4.65111E+01  1.588E-01  2.000E+01  2.000E+04 -1.981E-01
   1   16    6     1     6    1.1887E+05 -3.1316E+03   1.2200E+05  0.000E+00  0.000E+00  0.000E+00  4.60367E+01  1.617E-01  2.000E+01  2.000E+04 -1.566E-01
   1   16    7     1     7    1.2200E+05 -3.1883E+03   1.2519E+05  0.000E+00  0.000E+00  0.000E+00  4.55620E+01  1.643E-01  2.000E+01  2.000E+04 -1.594E-01
   1   16    8     1     8    1.2519E+05 -3.2088E+03   1.2840E+05  0.000E+00  0.000E+00  0.000E+00  4.50872E+01  1.668E-01  2.000E+01  2.000E+04 -1.604E-01
   1   16    9     1     9    1.2840E+05 -3.1768E+03   1.3157E+05  0.000E+00  0.000E+00  0.000E+00  4.46125E+01  1.693E-01  2.000E+01  2.000E+04 -1.588E-01
   1   16   10     1    10    1.3157E+05 -3.0884E+03   1.3466E+05  0.000E+00  0.000E+00  0.000E+00  4.41376E+01  1.717E-01  2.000E+01  2.000E+04 -1.544E-01
   1   16   11     1    11    1.3466E+05 -2.9459E+03   1.3761E+05  0.000E+00  0.000E+00  0.000E+00  4.36627E+01  1.741E-01  2.000E+01  2.000E+04 -1.473E-01
   1   16   12     1    12    1.3761E+05 -3.4522E+03   1.4106E+05  0.000E+00  0.000E+00  0.000E+00  4.31879E+01  1.765E-01  2.000E+01  2.000E+04 -1.726E-01
   1   15   13     1    13    1.4106E+05 -3.0956E+03   1.4415E+05  0.000E+00  0.000E+00  0.000E+00  4.27131E+01  1.790E-01  2.000E+01  2.000E+04 -1.548E-01
   1   14   14     1    14    1.4415E+05 -3.1298E+03   1.4728E+05  0.000E+00  0.000E+00  0.000E+00  4.22381E+01  1.813E-01  2.000E+01  2.000E+04 -1.565E-01
   1   13   15     1    15    1.4728E+05 -3.5182E+03   1.5080E+05  0.000E+00  0.000E+00  0.000E+00  4.17633E+01  1.838E-01  2.000E+01  2.000E+04 -1.759E-01
   1   12   16     1    16    1.5080E+05 -5.0734E+03   1.5588E+05  0.000E+00  0.000E+00  0.000E+00  4.12892E+01  1.869E-01  2.000E+01  2.000E+04 -2.537E-01
   1   12   17     1    17    1.5588E+05 -3.0659E+03   1.5894E+05  0.000E+00  0.000E+00  0.000E+00  4.08149E+01  1.899E-01  2.000E+01  2.000E+04 -1.533E-01
   1   12   18     1    18    1.5894E+05 -2.8548E+03   1.6180E+05  0.000E+00  0.000E+00  0.000E+00  4.03398E+01  1.920E-01  2.000E+01  2.000E+04 -1.427E-01
   1   12   19     1    19    1.6180E+05 -3.9615E+03   1.6576E+05  0.000E+00  0.000E+00  0.000E+00  3.98649E+01  1.945E-01  2.000E+01  2.000E+04 -1.981E-01
   1   13   20     1    20    1.6576E+05 -1.4384E+03   1.6720E+05  0.000E+00  0.000E+00  0.000E+00  3.93896E+01  1.964E-01  2.000E+01  2.000E+04 -7.192E-02
   1   14   21     1    21    1.6720E+05  1.4349E+03   1.6576E+05  0.000E+00  0.000E+00  0.000E+00  3.89123E+01  1.964E-01  2.000E+01  2.000E+04  7.175E-02
   1   14   22     1    22    1.6576E+05  5.8888E+03   1.5987E+05  0.000E+00  0.000E+00  0.000E+00  3.84324E+01  1.938E-01  2.000E+01  2.000E+04  2.944E-01
   1    9   30     2     1    5.0000E+04 -2.6594E+03   5.2659E+04  0.000E+00  0.000E+00  0.000E+00  4.02427E+01  1.177E-01  2.000E+01  2.000E+04 -1.330E-01
   1    9   29     2     2    5.2659E+04 -2.9938E+03   5.5653E+04  0.000E+00  0.000E+00  0.000E+00  3.99966E+01  1.216E-01  2.000E+01  2.000E+04 -1.497E-01
[...]
  19  ****** ****** ****** ****** ****** ****** ****** ****** ****** ******
      ****** ****** ****** ****** ****** ****** ****** ****** ****** ******
      ****** ****** ****** ****** ****** ****** ****** ****** ****** ******
  20  ****** ****** ****** ****** ****** ****** ****** ****** ****** ******
      ****** ****** ****** ****** ****** ****** ****** ****** ****** ******
      ****** ****** ****** ****** ****** ****** ****** ****** ****** ******
  21  ****** ****** ****** ****** ****** ****** ****** ****** ****** ******
      ****** ****** ****** ****** ****** ****** ****** ****** ****** ******
      ****** ****** ****** ****** ****** ****** ****** ****** ****** ******
  22  ****** ****** ****** ****** ****** ****** ****** ****** ****** ******
      ****** ****** ****** ****** ****** ****** ****** ****** ****** ******
      ****** ****** ****** ****** ****** ****** ****** ****** ****** ******
  23  ****** ****** ****** ****** ****** ****** ****** ****** ****** ******
      ****** ****** ****** ****** ****** ****** ****** ****** ****** ******
      ****** ****** ****** ****** ****** ****** ****** ****** ****** ******
  24  ****** ****** ****** ****** ****** ****** ****** ****** ****** ******
      ****** ****** ****** ****** ****** ****** ****** ****** ****** ******
      ****** ****** ****** ****** ****** ****** ****** ****** ****** ******
  25  ****** ****** ****** ****** ****** ****** ****** ****** ****** ******
      ****** ****** ****** ****** ****** ****** ****** ****** ****** ******
      ****** ****** ****** ****** ****** ****** ****** ****** ****** ******

 HEAD WILL BE SAVED ON UNIT   51 AT END OF TIME STEP    1, STRESS PERIOD   11
1
  VOLUMETRIC BUDGET FOR ENTIRE MODEL AT END OF TIME STEP    1, STRESS PERIOD  11
  ------------------------------------------------------------------------------

     CUMULATIVE VOLUMES      L**3       RATES FOR THIS TIME STEP      L**3/T
     ------------------                 ------------------------

           IN:                                      IN:
           ---                                      ---
             STORAGE =    28210019.5049               STORAGE =       11777.3190
       CONSTANT HEAD =   156954371.2843         CONSTANT HEAD =      164605.6568
               WELLS =           0.0000                 WELLS =           0.0000
            RECHARGE =    23901600.0000              RECHARGE =           0.0000
      STREAM LEAKAGE =    47723899.3404        STREAM LEAKAGE =       43438.9012

            TOTAL IN =   256789890.1296              TOTAL IN =      219821.8770

          OUT:                                     OUT:
          ----                                     ----
             STORAGE =     3060894.4747               STORAGE =           0.0000
       CONSTANT HEAD =           0.0000         CONSTANT HEAD =           0.0000
               WELLS =   137556557.3612                 WELLS =      121395.9591
            RECHARGE =           0.0000              RECHARGE =           0.0000
      STREAM LEAKAGE =   116172439.2875        STREAM LEAKAGE =       98425.9200

           TOTAL OUT =   256789891.1234             TOTAL OUT =      219821.8791

            IN - OUT =          -0.9937              IN - OUT =      -2.0967E-03

 PERCENT DISCREPANCY =          -0.00     PERCENT DISCREPANCY =          -0.00






         TIME SUMMARY AT END OF TIME STEP    1 IN STRESS PERIOD   11
                    SECONDS     MINUTES      HOURS       DAYS        YEARS
                    -----------------------------------------------------------
   TIME STEP LENGTH 7.86240E+06 1.31040E+05  2184.0      91.000     0.24914    
 STRESS PERIOD TIME 7.86240E+06 1.31040E+05  2184.0      91.000     0.24914    
         TOTAL TIME 8.67456E+07 1.44576E+06  24096.      1004.0      2.7488    
1
1
                            STRESS PERIOD NO.   12, LENGTH =   91.00000    
                            -----------------------------------------------

                              NUMBER OF TIME STEPS =     1

                               MULTIPLIER FOR DELT =     1.500

                            INITIAL TIME STEP SIZE =   91.00000    

 WELL NO.  LAYER   ROW   COL   STRESS RATE         
 --------------------------------------------------
      1      1     18     24     -0.1890E+05
      2      1     19     27     -0.5000E+05
      3      1     21     24     -0.5250E+05

      3 WELLS

                 RECHARGE =  1.000000E-03

 REUSING STREAM SEGMENT DATA FROM LAST STRESS PERIOD
 
 SOLVING FOR HEAD 


     6 CALLS TO PCG ROUTINE FOR TIME STEP   1 IN STRESS PERIOD   12
    23 TOTAL ITERATIONS

 OUTPUT CONTROL FOR STRESS PERIOD   12   TIME STEP    1
    SAVE BUDGET
    SAVE HEAD FOR ALL LAYERS
    PRINT HEAD FOR ALL LAYERS
 UBDSV2 SAVING "STREAMFLOW OUT  " ON UNIT  50 AT TIME STEP  1, STRESS PERIOD  12



 STREAM LISTING     PERIOD     12   STEP        1

 LAYER ROW COL. STREAM  RCH.  FLOW INTO     FLOW TO   FLOW OUT OF   OVRLND.     DIRECT     STREAM       STREAM     STREAM     STREAM   STREAMBED  STREAMBED
                SEG.NO.  NO.  STRM. RCH.    AQUIFER    STRM. RCH.    RUNOFF     PRECIP       ET          HEAD       DEPTH      WIDTH   CONDCTNC.   GRADIENT

   1   13    1     1     1    1.0000E+05 -2.8644E+03   1.0286E+05  0.000E+00  0.000E+00  0.000E+00  4.84073E+01  1.459E-01  2.000E+01  2.000E+04 -1.432E-01
   1   13    2     1     2    1.0286E+05 -4.7960E+03   1.0766E+05  0.000E+00  0.000E+00  0.000E+00  4.79333E+01  1.492E-01  2.000E+01  2.000E+04 -2.398E-01
   1   14    3     1     3    1.0766E+05 -3.8612E+03   1.1152E+05  0.000E+00  0.000E+00  0.000E+00  4.74596E+01  1.528E-01  2.000E+01  2.000E+04 -1.931E-01
   1   15    4     1     4    1.1152E+05 -3.7639E+03   1.1529E+05  0.000E+00  0.000E+00  0.000E+00  4.69855E+01  1.560E-01  2.000E+01  2.000E+04 -1.882E-01
   1   16    5     1     5    1.1529E+05 -4.0825E+03   1.1937E+05  0.000E+00  0.000E+00  0.000E+00  4.65115E+01  1.592E-01  2.000E+01  2.000E+04 -2.041E-01
   1   16    6     1     6    1.1937E+05 -3.2250E+03   1.2259E+05  0.000E+00  0.000E+00  0.000E+00  4.60372E+01  1.622E-01  2.000E+01  2.000E+04 -1.612E-01
   1   16    7     1     7    1.2259E+05 -3.2850E+03   1.2588E+05  0.000E+00  0.000E+00  0.000E+00  4.55625E+01  1.648E-01  2.000E+01  2.000E+04 -1.643E-01
   1   16    8     1     8    1.2588E+05 -3.3114E+03   1.2919E+05  0.000E+00  0.000E+00  0.000E+00  4.50878E+01  1.674E-01  2.000E+01  2.000E+04 -1.656E-01
   1   16    9     1     9    1.2919E+05 -3.2884E+03   1.3248E+05  0.000E+00  0.000E+00  0.000E+00  4.46131E+01  1.700E-01  2.000E+01  2.000E+04 -1.644E-01
   1   16   10     1    10    1.3248E+05 -3.2141E+03   1.3569E+05  0.000E+00  0.000E+00  0.000E+00  4.41384E+01  1.725E-01  2.000E+01  2.000E+04 -1.607E-01
   1   16   11     1    11    1.3569E+05 -3.0973E+03   1.3879E+05  0.000E+00  0.000E+00  0.000E+00  4.36635E+01  1.749E-01  2.000E+01  2.000E+04 -1.549E-01
   1   16   12     1    12    1.3879E+05 -3.7639E+03   1.4255E+05  0.000E+00  0.000E+00  0.000E+00  4.31889E+01  1.775E-01  2.000E+01  2.000E+04 -1.882E-01
   1   15   13     1    13    1.4255E+05 -3.4252E+03   1.4598E+05  0.000E+00  0.000E+00  0.000E+00  4.27143E+01  1.802E-01  2.000E+01  2.000E+04 -1.713E-01
   1   14   14     1    14    1.4598E+05 -3.4706E+03   1.4945E+05  0.000E+00  0.000E+00  0.000E+00  4.22396E+01  1.828E-01  2.000E+01  2.000E+04 -1.735E-01
   1   13   15     1    15    1.4945E+05 -3.8314E+03   1.5328E+05  0.000E+00  0.000E+00  0.000E+00  4.17650E+01  1.855E-01  2.000E+01  2.000E+04 -1.916E-01
   1   12   16     1    16    1.5328E+05 -5.2646E+03   1.5854E+05  0.000E+00  0.000E+00  0.000E+00  4.12911E+01  1.888E-01  2.000E+01  2.000E+04 -2.632E-01
   1   12   17     1    17    1.5854E+05 -3.2906E+03   1.6184E+05  0.000E+00  0.000E+00  0.000E+00  4.08169E+01  1.919E-01  2.000E+01  2.000E+04 -1.645E-01
   1   12   18     1    18    1.6184E+05 -3.1050E+03   1.6494E+05  0.000E+00  0.000E+00  0.000E+00  4.03419E+01  1.942E-01  2.000E+01  2.000E+04 -1.553E-01
   1   12   19     1    19    1.6494E+05 -4.2141E+03   1.6915E+05  0.000E+00  0.000E+00  0.000E+00  3.98673E+01  1.968E-01  2.000E+01  2.000E+04 -2.107E-01
   1   13   20     1    20    1.6915E+05 -2.0092E+03   1.7116E+05  0.000E+00  0.000E+00  0.000E+00  3.93922E+01  1.990E-01  2.000E+01  2.000E+04 -1.005E-01
   1   14   21     1    21    1.7116E+05  1.7864E+02   1.7099E+05  0.000E+00  0.000E+00  0.000E+00  3.89155E+01  1.996E-01  2.000E+01  2.000E+04  8.932E-03
   1   14   22     1    22    1.7099E+05  5.5862E+03   1.6540E+05  0.000E+00  0.000E+00  0.000E+00  3.84362E+01  1.976E-01  2.000E+01  2.000E+04  2.793E-01
   1    9   30     2     1    5.0000E+04 -2.7585E+03   5.2758E+04  0.000E+00  0.000E+00  0.000E+00  4.02428E+01  1.178E-01  2.000E+01  2.000E+04 -1.379E-01
   1    9   29     2     2    5.2758E+04 -3.0917E+03   5.5850E+04  0.000E+00  0.000E+00  0.000E+00  3.99968E+01  1.218E-01  2.000E+01  2.000E+04 -1.546E-01
   1    9   28     2     3    5.5850E+04 -3.4751E+03   5.9325E+04  0.000E+00  0.000E+00  0.000E+00  3.97511E+01  1.261E-01  2.000E+01  2.000E+04 -1.738E-01
   1    9   27     2     4    5.9325E+04 -6.2068E+03   6.5532E+04  0.000E+00  0.000E+00  0.000E+00  3.95074E+01  1.324E-01  2.000E+01  2.000E+04 -3.103E-01
   1   10   26     2     5    6.5532E+04 -3.8234E+03   6.9355E+04  0.000E+00  0.000E+00  0.000E+00  3.92637E+01  1.387E-01  2.000E+01  2.000E+04 -1.912E-01
   1   11   25     2     6    6.9355E+04 -2.7697E+03   7.2125E+04  0.000E+00  0.000E+00  0.000E+00  3.90177E+01  1.427E-01  2.000E+01  2.000E+04 -1.385E-01
   1   12   24     2     7    7.2125E+04 -1.9113E+03   7.4036E+04  0.000E+00  0.000E+00  0.000E+00  3.87705E+01  1.455E-01  2.000E+01  2.000E+04 -9.557E-02
   1   13   23     2     8    7.4036E+04 -1.0540E+03   7.5090E+04  0.000E+00  0.000E+00  0.000E+00  3.85223E+01  1.473E-01  2.000E+01  2.000E+04 -5.270E-02
   1   14   22     2     9    7.5090E+04  2.2918E+03   7.2799E+04  0.000E+00  0.000E+00  0.000E+00  3.82715E+01  1.465E-01  2.000E+01  2.000E+04  1.146E-01
   1   14   22     3     1    2.3820E+05 -7.9463E+03   2.4614E+05  0.000E+00  0.000E+00  0.000E+00  3.77596E+01  2.041E-01  2.000E+01  2.000E+04 -3.973E-01
   1   15   23     3     2    2.4614E+05  3.1580E+03   2.4299E+05  0.000E+00  0.000E+00  0.000E+00  3.68719E+01  2.053E-01  2.000E+01  2.000E+04  1.579E-01
   1   15   24     3     3    2.4299E+05  3.0644E+03   2.3992E+05  0.000E+00  0.000E+00  0.000E+00  3.59815E+01  2.037E-01  2.000E+01  2.000E+04  1.532E-01
   1   15   25     3     4    2.3992E+05  2.6980E+03   2.3722E+05  0.000E+00  0.000E+00  0.000E+00  3.50911E+01  2.022E-01  2.000E+01  2.000E+04  1.349E-01
   1   15   26     3     5    2.3722E+05  1.1638E+03   2.3606E+05  0.000E+00  0.000E+00  0.000E+00  3.42013E+01  2.013E-01  2.000E+01  2.000E+04  5.819E-02
   1   16   27     3     6    2.3606E+05  5.7776E+03   2.3028E+05  0.000E+00  0.000E+00  0.000E+00  3.33106E+01  1.995E-01  2.000E+01  2.000E+04  2.889E-01
   1   17   28     3     7    2.3028E+05  8.8291E+03   2.2145E+05  0.000E+00  0.000E+00  0.000E+00  3.24179E+01  1.957E-01  2.000E+01  2.000E+04  4.415E-01
   1   18   29     3     8    2.2145E+05  8.4022E+03   2.1305E+05  0.000E+00  0.000E+00  0.000E+00  3.15245E+01  1.912E-01  2.000E+01  2.000E+04  4.201E-01
   1   18   30     3     9    2.1305E+05  4.3660E+02   2.1261E+05  0.000E+00  0.000E+00  0.000E+00  3.06333E+01  1.889E-01  2.000E+01  2.000E+04  2.183E-02



1
              HEAD IN LAYER   1 AT END OF TIME STEP   1 IN STRESS PERIOD   12
  ---------------------------------------------------------------------------

          1      2      3      4      5      6      7      8      9     10
         11     12     13     14     15     16     17     18     19     20
         21     22     23     24     25     26     27     28     29     30
 .........................................................................
   1  ****** ****** ****** ****** ****** ****** ****** ****** ****** ******
      ****** ****** ****** ****** ****** ****** ****** ****** ****** ******
      ****** ****** ****** ****** ****** ****** ****** ****** ****** ******
   2  ****** ****** ****** ****** ****** ****** ****** ****** ****** ******
      ****** ****** ****** ****** ****** ****** ****** ****** ****** ******
      ****** ****** ****** ****** ****** ****** ****** ****** ****** ******
   3  ****** ****** ****** ****** ****** ****** ****** ****** ****** ******
      ****** ****** ****** ****** ****** ****** ****** ****** ****** ******
      ****** ****** ****** ****** ****** ****** ****** ****** ****** ******
   4  ****** ****** ****** ****** ****** ****** ****** ****** ****** ******
      ****** ****** ****** ****** ****** ****** ****** ****** ****** ******
      ****** ****** ****** ****** ****** ****** ****** ****** ****** ******
   5  ****** ****** ****** ****** ****** ****** ****** ****** ****** ******
      ****** ****** ****** ****** ****** ****** ****** ****** ****** ******
      ****** ****** ****** ****** ****** ****** ****** ****** ****** ******
   6  ****** ****** ****** ****** ****** ****** ****** ****** ****** ******
      ****** ****** ****** ****** ****** ****** ****** ****** ****** ******
      ****** ****** ****** ****** ****** ****** ****** ****** ****** ******
   7  ****** ****** ****** ****** ****** ****** ****** ****** ****** ******
      ****** ****** ****** ****** ****** ****** ****** ****** ****** ******
      ****** ****** ****** ****** ****** ****** ****** ****** ****** ******
   8  ****** ****** ****** ****** ****** ****** ****** ****** ****** ******
      ****** ****** ****** ****** ****** ****** ****** ****** ****** ******
      ****** ****** ****** ****** ****** ****** ****** ****** ****** ******
   9  ****** ****** ****** ****** ****** ****** ****** ****** ****** ******
      ****** ****** ****** ****** ****** ****** ****** ****** ****** ******
      ****** ****** ****** ****** ****** ****** ****** ****** ****** ******
  10  ****** ****** ****** ****** ****** ****** ****** ****** ****** ******
      ****** ****** ****** ****** ****** ****** ****** ****** ****** ******
      ****** ****** ****** ****** ****** ****** ****** ****** ****** ******
  11  ****** ****** ****** ****** ****** ****** ****** ****** ****** ******
      ****** ****** ****** ****** ****** ****** ****** ****** ****** ******
      ****** ****** ****** ****** ****** ****** ****** ****** ****** ******
  12  ****** ****** ****** ****** ****** ****** ****** ****** ****** ******
      ****** ****** ****** ****** ****** ****** ****** ****** ****** ******
      ****** ****** ****** ****** ****** ****** ****** ****** ****** ******
  13  ****** ****** ****** ****** ****** ****** ****** ****** ****** ******
      ****** ****** ****** ****** ****** ****** ****** ****** ****** ******
      ****** ****** ****** ****** ****** ****** ****** ****** ****** ******
  14  ****** ****** ****** ****** ****** ****** ****** ****** ****** ******
      ****** ****** ****** ****** ****** ****** ****** ****** ****** ******
      ****** ****** ****** ****** ****** ****** ****** ****** ****** ******
  15  ****** ****** ****** ****** ****** ****** ****** ****** ****** ******
      ****** ****** ****** ****** ****** ****** ****** ****** ****** ******
      ****** ****** ****** ****** ****** ****** ****** ****** ****** ******
  16  ****** ****** ****** ****** ****** ****** ****** ****** ****** ******
      ****** ****** ****** ****** ****** ****** ****** ****** ****** ******
      ****** ****** ****** ****** ****** ****** ****** ****** ****** ******
  17  ****** ****** ****** ****** ****** ****** ****** ****** ****** ******
      ****** ****** ****** ****** ****** ****** ****** ****** ****** ******
      ****** ****** ****** ****** ****** ****** ****** ****** ****** ******
  18  ****** ****** ****** ****** ****** ****** ****** ****** ****** ******
      ****** ****** ****** ****** ****** ****** ****** ****** ****** ******
      ****** ****** ****** ****** ****** ****** ****** ****** ****** ******
  19  ****** ****** ****** ****** ****** ****** ****** ****** ****** ******
      ****** ****** ****** ****** ****** ****** ****** ****** ****** ******
      ****** ****** ****** ****** ****** ****** ****** ****** ****** ******
  20  ****** ****** ****** ****** ****** ****** ****** ****** ****** ******
      ****** ****** ****** ****** ****** ****** ****** ****** ****** ******
      ****** ****** ****** ****** ****** ****** ****** ****** ****** ******
  21  ****** ****** ****** ****** ****** ****** ****** ****** ****** ******
      ****** ****** ****** ****** ****** ****** ****** ****** ****** ******
      ****** ****** ****** ****** ****** ****** ****** ****** ****** ******
  22  ****** ****** ****** ****** ****** ****** ****** ****** ****** ******
      ****** ****** ****** ****** ****** ****** ****** ****** ****** ******
      ****** ****** ****** ****** ****** ****** ****** ****** ****** ******
  23  ****** ****** ****** ****** ****** ****** ****** ****** ****** ******
      ****** ****** ****** ****** ****** ****** ****** ****** ****** ******
      ****** ****** ****** ****** ****** ****** ****** ****** ****** ******
  24  ****** ****** ****** ****** ****** ****** ****** ****** ****** ******
      ****** ****** ****** ****** ****** ****** ****** ****** ****** ******
      ****** ****** ****** ****** ****** ****** ****** ****** ****** ******
  25  ****** ****** ****** ****** ****** ****** ****** ****** ****** ******
      ****** ****** ****** ****** ****** ****** ****** ****** ****** ******
      ****** ****** ****** ****** ****** ****** ****** ****** ****** ******

 HEAD WILL BE SAVED ON UNIT   51 AT END OF TIME STEP    1, STRESS PERIOD   12
1
  VOLUMETRIC BUDGET FOR ENTIRE MODEL AT END OF TIME STEP    1, STRESS PERIOD  12
  ------------------------------------------------------------------------------

     CUMULATIVE VOLUMES      L**3       RATES FOR THIS TIME STEP      L**3/T
     ------------------                 ------------------------

           IN:                                      IN:
           ---                                      ---
             STORAGE =    28210019.5049               STORAGE =           0.0000
       CONSTANT HEAD =   171529511.9297         CONSTANT HEAD =      160166.3807
               WELLS =           0.0000                 WELLS =           0.0000
            RECHARGE =    26413200.0000              RECHARGE =       27600.0000
      STREAM LEAKAGE =    51508252.2146        STREAM LEAKAGE =       41586.2953

            TOTAL IN =   277660983.6492              TOTAL IN =      229352.6760

          OUT:                                     OUT:
          ----                                     ----
             STORAGE =     3402707.2964               STORAGE =        3756.1849
       CONSTANT HEAD =           0.0000         CONSTANT HEAD =           0.0000
               WELLS =   148603589.6417                 WELLS =      121395.9591
            RECHARGE =           0.0000              RECHARGE =           0.0000
      STREAM LEAKAGE =   125654687.6292        STREAM LEAKAGE =      104200.5312

           TOTAL OUT =   277660984.5673             TOTAL OUT =      229352.6752

            IN - OUT =          -0.9180              IN - OUT =       8.3187E-04

 PERCENT DISCREPANCY =          -0.00     PERCENT DISCREPANCY =           0.00






         TIME SUMMARY AT END OF TIME STEP    1 IN STRESS PERIOD   12
                    SECONDS     MINUTES      HOURS       DAYS        YEARS
                    -----------------------------------------------------------
   TIME STEP LENGTH 7.86240E+06 1.31040E+05  2184.0      91.000     0.24914    
 STRESS PERIOD TIME 7.86240E+06 1.31040E+05  2184.0      91.000     0.24914    
         TOTAL TIME 9.46080E+07 1.57680E+06  26280.      1095.0      2.9979    
1

 Run end date and time (yyyy/mm/dd hh:mm:ss): 2018/10/05 16:10:46
 Elapsed run time:  0.064 Seconds

