                                  MODFLOW-2005     
      U.S. GEOLOGICAL SURVEY MODULAR FINITE-DIFFERENCE GROUND-WATER FLOW MODEL
                            VERSION 1.11.00 8/8/2013

 LIST FILE: supply2.lst
                         UNIT   10

 OPENING ..\data\supply.dis
 FILE TYPE:DIS   UNIT   11   STATUS:OLD    
 FORMAT:FORMATTED              ACCESS:SEQUENTIAL          

 OPENING ..\data\supply.ba6
 FILE TYPE:BAS6   UNIT   12   STATUS:OLD    
 FORMAT:FORMATTED              ACCESS:SEQUENTIAL          

 OPENING ..\data\supply_het.bc6
 FILE TYPE:BCF6   UNIT   13   STATUS:OLD    
 FORMAT:FORMATTED              ACCESS:SEQUENTIAL          

 OPENING ..\data\supply.rch
 FILE TYPE:RCH   UNIT   15   STATUS:OLD    
 FORMAT:FORMATTED              ACCESS:SEQUENTIAL          

 OPENING ..\data\supply2.sfr
 FILE TYPE:SFR   UNIT   16   STATUS:OLD    
 FORMAT:FORMATTED              ACCESS:SEQUENTIAL          

 OPENING ..\data\supply.oc
 FILE TYPE:OC   UNIT   17   STATUS:OLD    
 FORMAT:FORMATTED              ACCESS:SEQUENTIAL          

 OPENING ..\data\supply.pcg
 FILE TYPE:PCG   UNIT   18   STATUS:OLD    
 FORMAT:FORMATTED              ACCESS:SEQUENTIAL          

 OPENING supply2.wel
 FILE TYPE:WEL   UNIT   19   STATUS:OLD    
 FORMAT:FORMATTED              ACCESS:SEQUENTIAL          

 OPENING supply2sf.cbc
 FILE TYPE:DATA(BINARY)   UNIT   50   STATUS:UNKNOWN
 FORMAT:BINARY                 ACCESS:SEQUENTIAL          

 OPENING supply2hd.bhd
 FILE TYPE:DATA(BINARY)   UNIT   51   STATUS:UNKNOWN
 FORMAT:BINARY                 ACCESS:SEQUENTIAL          

 BAS -- BASIC PACKAGE, VERSION 7, 5/2/2005 INPUT READ FROM UNIT   12
 
 MODFLOW was compiled using uniform precision
 Precision of REAL and DOUBLE PRECISION variables:          15

 DISCRETIZATION INPUT DATA READ FROM UNIT   11
    1 LAYERS        25 ROWS        30 COLUMNS
   12 STRESS PERIOD(S) IN SIMULATION
 MODEL TIME UNIT IS DAYS
 MODEL LENGTH UNIT IS UNDEFINED
  Confining bed flag for each layer:
   0

                     DELR =   200.000    

                     DELC =   200.000    

 TOP ELEVATION OF LAYER 1 =  100.0000    

   MODEL LAYER BOTTOM EL. =   0.00000     FOR LAYER   1


 STRESS PERIOD     LENGTH       TIME STEPS     MULTIPLIER FOR DELT    SS FLAG
 ----------------------------------------------------------------------------
        1         92.00000          1                    1.500         TR
        2         91.00000          1                    1.500         TR
        3         91.00000          1                    1.500         TR
        4         91.00000          1                    1.500         TR
        5         92.00000          1                    1.500         TR
        6         91.00000          1                    1.500         TR
        7         91.00000          1                    1.500         TR
        8         91.00000          1                    1.500         TR
        9         92.00000          1                    1.500         TR
       10         91.00000          1                    1.500         TR
       11         91.00000          1                    1.500         TR
       12         91.00000          1                    1.500         TR

 TRANSIENT SIMULATION



 
 #MODOFC transient water supply sample problem                                   
 #                                                                               
 THE FREE FORMAT OPTION HAS BEEN SELECTED



                     BOUNDARY ARRAY FOR LAYER   1
 READING ON UNIT   12 WITH FORMAT: (20I4)              

 AQUIFER HEAD WILL BE SET TO   0.0000     AT ALL NO-FLOW NODES (IBOUND=0).



                       INITIAL HEAD FOR LAYER   1
 READING ON UNIT   12 WITH FORMAT: (10F13.0)           

 OUTPUT CONTROL IS SPECIFIED ONLY AT TIME STEPS FOR WHICH OUTPUT IS DESIRED
 COMPACT CELL-BY-CELL BUDGET FILES WILL BE WRITTEN
 HEAD PRINT FORMAT CODE IS  18    DRAWDOWN PRINT FORMAT CODE IS   0
 HEADS WILL BE SAVED ON UNIT   51    DRAWDOWNS WILL BE SAVED ON UNIT    0

 BCF -- BLOCK-CENTERED FLOW PACKAGE, VERSION 7, 5/2/2005
         INPUT READ FROM UNIT 13
 TRANSIENT SIMULATION
 HEAD AT CELLS THAT CONVERT TO DRY=   0.0000    
 WETTING CAPABILITY IS NOT ACTIVE
      LAYER  LAYER-TYPE CODE     INTERBLOCK T
      --------------------------------------------
         1            0          0 -- HARMONIC    

 COLUMN TO ROW ANISOTROPY =  1.000000    

     PRIMARY STORAGE COEF =  5.000000E-02 FOR LAYER   1



               TRANSMIS. ALONG ROWS FOR LAYER   1
 READING ON UNIT   13 WITH FORMAT: (FREE)              

 WEL -- WELL PACKAGE, VERSION 7, 5/2/2005 INPUT READ FROM UNIT   19
 # Well package input file written by MMProc
 No named parameters
 MAXIMUM OF      4 ACTIVE WELLS AT ONE TIME


     0 Well parameters

 RCH -- RECHARGE PACKAGE, VERSION 7, 5/2/2005 INPUT READ FROM UNIT   15
 No named parameters
 OPTION 1 -- RECHARGE TO TOP LAYER


     0 Recharge parameters

 SFR7 -- STREAMFLOW ROUTING PACKAGE, VERSION 1.0.7, 2013-01-15
         INPUT READ FROM UNIT  16
 #  Supply2 test problem for GWM-VI
 #  The eighth entry in the first data line is ISTCB2 -
 #    Setting this to a negative number indicates that
 #    streamflows out of the reach will be saved to a
 #    binary file.  The absolute value of ISTCB2 is the
 #    unit to which unformatted flows will be written.
 #
 No named parameters
 Segment information will not be 
 read by reach
 No named parameters
 No specifed inflow files


 NUMBER OF STREAM REACHES IS   40

 NUMBER OF STREAM SEGMENTS IS    3

 NUMBER OF STREAM PARAMETERS IS    0

 NUMBER OF STREAM SEGMENTS DEFINED USING PARAMETERS IS              0

 MAXIMUM ERROR FOR STREAM LEAKAGE RATES IS  1.00E-04

 CONSTANT FOR MANNINGS EQUATION IS  1.2839E+05





   STREAM NETWORK DESCRIPTION: 

   LAYER    ROW    COL   SEGMENT   REACH     LENGTH
                          NUMBER   NUMBER    IN CELL        
   --------------------------------------------------
      1     13      1       1        1    2.0000E+02
      1     13      2       1        2    2.0000E+02
      1     14      3       1        3    2.0000E+02
      1     15      4       1        4    2.0000E+02
      1     16      5       1        5    2.0000E+02
      1     16      6       1        6    2.0000E+02
      1     16      7       1        7    2.0000E+02
      1     16      8       1        8    2.0000E+02
      1     16      9       1        9    2.0000E+02
      1     16     10       1       10    2.0000E+02
      1     16     11       1       11    2.0000E+02
      1     16     12       1       12    2.0000E+02
      1     15     13       1       13    2.0000E+02
      1     14     14       1       14    2.0000E+02
      1     13     15       1       15    2.0000E+02
      1     12     16       1       16    2.0000E+02
      1     12     17       1       17    2.0000E+02
      1     12     18       1       18    2.0000E+02
      1     12     19       1       19    2.0000E+02
      1     13     20       1       20    2.0000E+02
      1     14     21       1       21    2.0000E+02
      1     14     22       1       22    2.0000E+02
      1      9     30       2        1    2.0000E+02
      1      9     29       2        2    2.0000E+02
      1      9     28       2        3    2.0000E+02
      1      9     27       2        4    2.0000E+02
      1     10     26       2        5    2.0000E+02
      1     11     25       2        6    2.0000E+02
      1     12     24       2        7    2.0000E+02
      1     13     23       2        8    2.0000E+02
      1     14     22       2        9    2.0000E+02
      1     14     22       3        1    2.0000E+02
      1     15     23       3        2    2.0000E+02
      1     15     24       3        3    2.0000E+02
      1     15     25       3        4    2.0000E+02
      1     15     26       3        5    2.0000E+02
      1     16     27       3        6    2.0000E+02
      1     17     28       3        7    2.0000E+02
      1     18     29       3        8    2.0000E+02
      1     18     30       3        9    2.0000E+02




 PCG -- CONJUGATE-GRADIENT SOLUTION PACKAGE, VERSION 7, 5/2/2005
 MAXIMUM OF    500 CALLS OF SOLUTION ROUTINE
 MAXIMUM OF      5 INTERNAL ITERATIONS PER CALL TO SOLUTION ROUTINE
 MATRIX PRECONDITIONING TYPE :    1



                                    SOLUTION BY THE CONJUGATE-GRADIENT METHOD
                                   -------------------------------------------
                    MAXIMUM NUMBER OF CALLS TO PCG ROUTINE =      500
                        MAXIMUM ITERATIONS PER CALL TO PCG =        5
                               MATRIX PRECONDITIONING TYPE =        1
        RELAXATION FACTOR (ONLY USED WITH PRECOND. TYPE 1) =    0.10000E+01
 PARAMETER OF POLYNOMIAL PRECOND. = 2 (2) OR IS CALCULATED :        0
                         HEAD CHANGE CRITERION FOR CLOSURE =    0.10000E-05
                     RESIDUAL CHANGE CRITERION FOR CLOSURE =    0.10000E+01
            PCG HEAD AND RESIDUAL CHANGE PRINTOUT INTERVAL =        1
     PRINTING FROM SOLVER IS LIMITED(1) OR SUPPRESSED (>1) =        1
                            STEADY-STATE DAMPING PARAMETER =    0.10000E+01
                               TRANSIENT DAMPING PARAMETER =    0.10000E+01
1
                            STRESS PERIOD NO.    1, LENGTH =   92.00000    
                            -----------------------------------------------

                              NUMBER OF TIME STEPS =     1

                               MULTIPLIER FOR DELT =     1.500

                            INITIAL TIME STEP SIZE =   92.00000    

 WELL NO.  LAYER   ROW   COL   STRESS RATE         
 --------------------------------------------------
      1      1      5     14      -8335.    
      2      1     14     19     -0.1115E+05
      3      1     20     20      -8343.    
      4      1      5     29     -0.1225E+05

      4 WELLS

                 RECHARGE =  5.000000E-04



 CLASSIFICATION & COUNT OF STREAM SEGMENTS BASED ON SOURCE OF INFLOW:

                HEADWATER     DIVERSION     RECEIVES TRIBUTARY FLOW
                ---------     ---------     -----------------------
                     2              0               1



                    INPUT DATA FOR EACH STREAM SEGMENT
 ---------------------------------------------------------------------------------------------

 SEGMENT    SEG.     INFLOW   OVERLAND   STREAM    STREAM   ICALC  OUTFLOW  DIVERSION PRIORITY
    NO.    LENGTH     RATE     RUNOFF      ET       PPT.    METH.  TO SEG.  FROM SEG.    NO.

      1  4.400E+03 1.000E+05 0.000E+00 0.000E+00 0.000E+00    1        3        0        0
      2  1.800E+03 5.000E+04 0.000E+00 0.000E+00 0.000E+00    1        3        0        0
      3  1.800E+03 0.000E+00 0.000E+00 0.000E+00 0.000E+00    1        0        0        0


         STREAMBED PROPERTIES AND STREAM DIMENSIONS

 SEGMENT     BED HYD. COND.      BED THICKNESS     ELEV.-TOP OF BED     WIDTH OF STREAM     DEPTH OF STREAM    STREAM ROUGHNESS
    No.     UPPER     LOWER     UPPER     LOWER     UPPER     LOWER     UPPER     LOWER     UPPER     LOWER   CHANNEL      BANK

     1  5.000E+00 5.000E+00 1.000E+00 1.000E+00 4.850E+01 3.800E+01 2.000E+01 2.000E+01                     5.000E-02
     2  5.000E+00 5.000E+00 1.000E+00 1.000E+00 4.025E+01 3.800E+01 2.000E+01 2.000E+01                     5.000E-02
     3  5.000E+00 5.000E+00 1.000E+00 1.000E+00 3.800E+01 3.000E+01 2.000E+01 2.000E+01                     5.000E-02



 
 SOLVING FOR HEAD 


     9 CALLS TO PCG ROUTINE FOR TIME STEP   1 IN STRESS PERIOD    1
    36 TOTAL ITERATIONS

 OUTPUT CONTROL FOR STRESS PERIOD    1   TIME STEP    1
    SAVE BUDGET
    SAVE HEAD FOR ALL LAYERS
    PRINT HEAD FOR ALL LAYERS
 UBDSV2 SAVING "STREAMFLOW OUT  " ON UNIT  50 AT TIME STEP  1, STRESS PERIOD   1



 STREAM LISTING     PERIOD      1   STEP        1

 LAYER ROW COL. STREAM  RCH.  FLOW INTO     FLOW TO   FLOW OUT OF   OVRLND.     DIRECT     STREAM       STREAM     STREAM     STREAM   STREAMBED  STREAMBED
                SEG.NO.  NO.  STRM. RCH.    AQUIFER    STRM. RCH.    RUNOFF     PRECIP       ET          HEAD       DEPTH      WIDTH   CONDCTNC.   GRADIENT

   1   13    1     1     1    1.0000E+05 -6.1014E+03   1.0610E+05  0.000E+00  0.000E+00  0.000E+00  4.84086E+01  1.473E-01  2.000E+01  2.000E+04 -3.051E-01
   1   13    2     1     2    1.0610E+05 -7.5703E+03   1.1367E+05  0.000E+00  0.000E+00  0.000E+00  4.79372E+01  1.531E-01  2.000E+01  2.000E+04 -3.785E-01
   1   14    3     1     3    1.1367E+05 -2.1974E+03   1.1587E+05  0.000E+00  0.000E+00  0.000E+00  4.74639E+01  1.571E-01  2.000E+01  2.000E+04 -1.099E-01
   1   15    4     1     4    1.1587E+05 -2.2686E+03   1.1814E+05  0.000E+00  0.000E+00  0.000E+00  4.69885E+01  1.589E-01  2.000E+01  2.000E+04 -1.134E-01
   1   16    5     1     5    1.1814E+05 -7.1712E+03   1.2531E+05  0.000E+00  0.000E+00  0.000E+00  4.65150E+01  1.628E-01  2.000E+01  2.000E+04 -3.586E-01
   1   16    6     1     6    1.2531E+05 -4.2912E+03   1.2960E+05  0.000E+00  0.000E+00  0.000E+00  4.60423E+01  1.673E-01  2.000E+01  2.000E+04 -2.146E-01
   1   16    7     1     7    1.2960E+05 -4.1215E+03   1.3372E+05  0.000E+00  0.000E+00  0.000E+00  4.55683E+01  1.706E-01  2.000E+01  2.000E+04 -2.061E-01
   1   16    8     1     8    1.3372E+05 -4.0733E+03   1.3779E+05  0.000E+00  0.000E+00  0.000E+00  4.50942E+01  1.738E-01  2.000E+01  2.000E+04 -2.037E-01
   1   16    9     1     9    1.3779E+05 -4.0515E+03   1.4185E+05  0.000E+00  0.000E+00  0.000E+00  4.46201E+01  1.769E-01  2.000E+01  2.000E+04 -2.026E-01
   1   16   10     1    10    1.4185E+05 -4.0309E+03   1.4588E+05  0.000E+00  0.000E+00  0.000E+00  4.41458E+01  1.799E-01  2.000E+01  2.000E+04 -2.015E-01
   1   16   11     1    11    1.4588E+05 -4.0330E+03   1.4991E+05  0.000E+00  0.000E+00  0.000E+00  4.36716E+01  1.829E-01  2.000E+01  2.000E+04 -2.016E-01
   1   16   12     1    12    1.4991E+05 -6.7178E+03   1.5663E+05  0.000E+00  0.000E+00  0.000E+00  4.31983E+01  1.869E-01  2.000E+01  2.000E+04 -3.359E-01
   1   15   13     1    13    1.5663E+05 -6.9435E+03   1.6357E+05  0.000E+00  0.000E+00  0.000E+00  4.27259E+01  1.918E-01  2.000E+01  2.000E+04 -3.472E-01
   1   14   14     1    14    1.6357E+05 -7.2844E+03   1.7086E+05  0.000E+00  0.000E+00  0.000E+00  4.22537E+01  1.969E-01  2.000E+01  2.000E+04 -3.642E-01
   1   13   15     1    15    1.7086E+05 -7.4617E+03   1.7832E+05  0.000E+00  0.000E+00  0.000E+00  4.17816E+01  2.021E-01  2.000E+01  2.000E+04 -3.731E-01
   1   12   16     1    16    1.7832E+05 -8.2217E+03   1.8654E+05  0.000E+00  0.000E+00  0.000E+00  4.13098E+01  2.075E-01  2.000E+01  2.000E+04 -4.111E-01
   1   12   17     1    17    1.8654E+05 -5.5238E+03   1.9206E+05  0.000E+00  0.000E+00  0.000E+00  4.08371E+01  2.121E-01  2.000E+01  2.000E+04 -2.762E-01
   1   12   18     1    18    1.9206E+05 -4.9966E+03   1.9706E+05  0.000E+00  0.000E+00  0.000E+00  4.03634E+01  2.157E-01  2.000E+01  2.000E+04 -2.498E-01
   1   12   19     1    19    1.9706E+05 -6.1851E+03   2.0324E+05  0.000E+00  0.000E+00  0.000E+00  3.98898E+01  2.194E-01  2.000E+01  2.000E+04 -3.093E-01
   1   13   20     1    20    2.0324E+05 -3.9876E+03   2.0723E+05  0.000E+00  0.000E+00  0.000E+00  3.94159E+01  2.227E-01  2.000E+01  2.000E+04 -1.994E-01
   1   14   21     1    21    2.0723E+05 -4.1740E+03   2.1141E+05  0.000E+00  0.000E+00  0.000E+00  3.89412E+01  2.253E-01  2.000E+01  2.000E+04 -2.087E-01
   1   14   22     1    22    2.1141E+05  3.8610E+03   2.0755E+05  0.000E+00  0.000E+00  0.000E+00  3.84641E+01  2.254E-01  2.000E+01  2.000E+04  1.931E-01
   1    9   30     2     1    5.0000E+04 -3.5199E+03   5.3520E+04  0.000E+00  0.000E+00  0.000E+00  4.02433E+01  1.183E-01  2.000E+01  2.000E+04 -1.760E-01
   1    9   29     2     2    5.3520E+04 -3.8821E+03   5.7402E+04  0.000E+00  0.000E+00  0.000E+00  3.99983E+01  1.233E-01  2.000E+01  2.000E+04 -1.941E-01
   1    9   28     2     3    5.7402E+04 -4.3416E+03   6.1744E+04  0.000E+00  0.000E+00  0.000E+00  3.97537E+01  1.287E-01  2.000E+01  2.000E+04 -2.171E-01
   1    9   27     2     4    6.1744E+04 -7.1395E+03   6.8883E+04  0.000E+00  0.000E+00  0.000E+00  3.95110E+01  1.360E-01  2.000E+01  2.000E+04 -3.570E-01
   1   10   26     2     5    6.8883E+04 -6.8938E+03   7.5777E+04  0.000E+00  0.000E+00  0.000E+00  3.92696E+01  1.446E-01  2.000E+01  2.000E+04 -3.447E-01
   1   11   25     2     6    7.5777E+04 -6.5569E+03   8.2334E+04  0.000E+00  0.000E+00  0.000E+00  3.90275E+01  1.525E-01  2.000E+01  2.000E+04 -3.278E-01
   1   12   24     2     7    8.2334E+04 -6.1472E+03   8.8481E+04  0.000E+00  0.000E+00  0.000E+00  3.87848E+01  1.598E-01  2.000E+01  2.000E+04 -3.074E-01
   1   13   23     2     8    8.8481E+04 -1.6307E+03   9.0112E+04  0.000E+00  0.000E+00  0.000E+00  3.85391E+01  1.641E-01  2.000E+01  2.000E+04 -8.153E-02
   1   14   22     2     9    9.0112E+04  3.7532E+02   8.9736E+04  0.000E+00  0.000E+00  0.000E+00  3.82898E+01  1.648E-01  2.000E+01  2.000E+04  1.877E-02
   1   14   22     3     1    2.9728E+05 -9.6487E+03   3.0693E+05  0.000E+00  0.000E+00  0.000E+00  3.77886E+01  2.330E-01  2.000E+01  2.000E+04 -4.824E-01
   1   15   23     3     2    3.0693E+05 -1.8268E+03   3.0876E+05  0.000E+00  0.000E+00  0.000E+00  3.69023E+01  2.357E-01  2.000E+01  2.000E+04 -9.134E-02
   1   15   24     3     3    3.0876E+05 -1.5035E+03   3.1026E+05  0.000E+00  0.000E+00  0.000E+00  3.60142E+01  2.364E-01  2.000E+01  2.000E+04 -7.518E-02
   1   15   25     3     4    3.1026E+05 -1.5667E+03   3.1183E+05  0.000E+00  0.000E+00  0.000E+00  3.51260E+01  2.371E-01  2.000E+01  2.000E+04 -7.833E-02
   1   15   26     3     5    3.1183E+05 -1.8767E+03   3.1370E+05  0.000E+00  0.000E+00  0.000E+00  3.42379E+01  2.379E-01  2.000E+01  2.000E+04 -9.384E-02
   1   16   27     3     6    3.1370E+05 -2.1533E+03   3.1586E+05  0.000E+00  0.000E+00  0.000E+00  3.33500E+01  2.388E-01  2.000E+01  2.000E+04 -1.077E-01
   1   17   28     3     7    3.1586E+05 -6.5193E+03   3.2238E+05  0.000E+00  0.000E+00  0.000E+00  3.24630E+01  2.408E-01  2.000E+01  2.000E+04 -3.260E-01
   1   18   29     3     8    3.2238E+05 -7.8529E+03   3.3023E+05  0.000E+00  0.000E+00  0.000E+00  3.15774E+01  2.440E-01  2.000E+01  2.000E+04 -3.926E-01
   1   18   30     3     9    3.3023E+05 -7.0930E+03   3.3732E+05  0.000E+00  0.000E+00  0.000E+00  3.06918E+01  2.474E-01  2.000E+01  2.000E+04 -3.547E-01



1
              HEAD IN LAYER   1 AT END OF TIME STEP   1 IN STRESS PERIOD    1
  ---------------------------------------------------------------------------

          1      2      3      4      5      6      7      8      9     10
         11     12     13     14     15     16     17     18     19     20
         21     22     23     24     25     26     27     28     29     30
 .........................................................................
   1  ****** ****** ****** ****** ****** ****** ****** ****** ****** ******
      ****** ****** ****** ****** ****** ****** ****** ****** ****** ******
      ****** ****** ****** ****** ****** ****** ****** ****** ****** ******
   2  ****** ****** ****** ****** ****** ****** ****** ****** ****** ******
      ****** ****** ****** ****** ****** ****** ****** ****** ****** ******
      ****** ****** ****** ****** ****** ****** ****** ****** ****** ******
   3  ****** ****** ****** ****** ****** ****** ****** ****** ****** ******
      ****** ****** ****** ****** ****** ****** ****** ****** ****** ******
      ****** ****** ****** ****** ****** ****** ****** ****** ****** ******
   4  ****** ****** ****** ****** ****** ****** ****** ****** ****** ******
      ****** ****** ****** ****** ****** ****** ****** ****** ****** ******
      ****** ****** ****** ****** ****** ****** ****** ****** ****** ******
   5  ****** ****** ****** ****** ****** ****** ****** ****** ****** ******
      ****** ****** ****** ****** ****** ****** ****** ****** ****** ******
      ****** ****** ****** ****** ****** ****** ****** ****** ****** ******
   6  ****** ****** ****** ****** ****** ****** ****** ****** ****** ******
      ****** ****** ****** ****** ****** ****** ****** ****** ****** ******
      ****** ****** ****** ****** ****** ****** ****** ****** ****** ******
   7  ****** ****** ****** ****** ****** ****** ****** ****** ****** ******
      ****** ****** ****** ****** ****** ****** ****** ****** ****** ******
      ****** ****** ****** ****** ****** ****** ****** ****** ****** ******
   8  ****** ****** ****** ****** ****** ****** ****** ****** ****** ******
      ****** ****** ****** ****** ****** ****** ****** ****** ****** ******
      ****** ****** ****** ****** ****** ****** ****** ****** ****** ******
   9  ****** ****** ****** ****** ****** ****** ****** ****** ****** ******
      ****** ****** ****** ****** ****** ****** ****** ****** ****** ******
      ****** ****** ****** ****** ****** ****** ****** ****** ****** ******
  10  ****** ****** ****** ****** ****** ****** ****** ****** ****** ******
      ****** ****** ****** ****** ****** ****** ****** ****** ****** ******
      ****** ****** ****** ****** ****** ****** ****** ****** ****** ******
  11  ****** ****** ****** ****** ****** ****** ****** ****** ****** ******
      ****** ****** ****** ****** ****** ****** ****** ****** ****** ******
      ****** ****** ****** ****** ****** ****** ****** ****** ****** ******
  12  ****** ****** ****** ****** ****** ****** ****** ****** ****** ******
      ****** ****** ****** ****** ****** ****** ****** ****** ****** ******
      ****** ****** ****** ****** ****** ****** ****** ****** ****** ******
  13  ****** ****** ****** ****** ****** ****** ****** ****** ****** ******
      ****** ****** ****** ****** ****** ****** ****** ****** ****** ******
      ****** ****** ****** ****** ****** ****** ****** ****** ****** ******
  14  ****** ****** ****** ****** ****** ****** ****** ****** ****** ******
      ****** ****** ****** ****** ****** ****** ****** ****** ****** ******
      ****** ****** ****** ****** ****** ****** ****** ****** ****** ******
  15  ****** ****** ****** ****** ****** ****** ****** ****** ****** ******
      ****** ****** ****** ****** ****** ****** ****** ****** ****** ******
      ****** ****** ****** ****** ****** ****** ****** ****** ****** ******
  16  ****** ****** ****** ****** ****** ****** ****** ****** ****** ******
      ****** ****** ****** ****** ****** ****** ****** ****** ****** ******
      ****** ****** ****** ****** ****** ****** ****** ****** ****** ******
  17  ****** ****** ****** ****** ****** ****** ****** ****** ****** ******
      ****** ****** ****** ****** ****** ****** ****** ****** ****** ******
      ****** ****** ****** ****** ****** ****** ****** ****** ****** ******
  18  ****** ****** ****** ****** ****** ****** ****** ****** ****** ******
      ****** ****** ****** ****** ****** ****** ****** ****** ****** ******
      ****** ****** ****** ****** ****** ****** ****** ****** ****** ******
  19  ****** ****** ****** ****** ****** ****** ****** ****** ****** ******
      ****** ****** ****** ****** ****** ****** ****** ****** ****** ******
      ****** ****** ****** ****** ****** ****** ****** ****** ****** ******
  20  ****** ****** ****** ****** ****** ****** ****** ****** ****** ******
      ****** ****** ****** ****** ****** ****** ****** ****** ****** ******
      ****** ****** ****** ****** ****** ****** ****** ****** ****** ******
  21  ****** ****** ****** ****** ****** ****** ****** ****** ****** ******
      ****** ****** ****** ****** ****** ****** ****** ****** ****** ******
      ****** ****** ****** ****** ****** ****** ****** ****** ****** ******
  22  ****** ****** ****** ****** ****** ****** ****** ****** ****** ******
      ****** ****** ****** ****** ****** ****** ****** ****** ****** ******
      ****** ****** ****** ****** ****** ****** ****** ****** ****** ******
  23  ****** ****** ****** ****** ****** ****** ****** ****** ****** ******
      ****** ****** ****** ****** ****** ****** ****** ****** ****** ******
      ****** ****** ****** ****** ****** ****** ****** ****** ****** ******
  24  ****** ****** ****** ****** ****** ****** ****** ****** ****** ******
      ****** ****** ****** ****** ****** ****** ****** ****** ****** ******
      ****** ****** ****** ****** ****** ****** ****** ****** ****** ******
  25  ****** ****** ****** ****** ****** ****** ****** ****** ****** ******
      ****** ****** ****** ****** ****** ****** ****** ****** ****** ******
      ****** ****** ****** ****** ****** ****** ****** ****** ****** ******

 HEAD WILL BE SAVED ON UNIT   51 AT END OF TIME STEP    1, STRESS PERIOD    1
1
  VOLUMETRIC BUDGET FOR ENTIRE MODEL AT END OF TIME STEP    1, STRESS PERIOD   1
  ------------------------------------------------------------------------------

     CUMULATIVE VOLUMES      L**3       RATES FOR THIS TIME STEP      L**3/T
     ------------------                 ------------------------

           IN:                                      IN:
           ---                                      ---
             STORAGE =    18396207.3492               STORAGE =      199958.7755
       CONSTANT HEAD =     1255038.1994         CONSTANT HEAD =       13641.7196
               WELLS =           0.0000                 WELLS =           0.0000
            RECHARGE =     1269600.0000              RECHARGE =       13800.0000
      STREAM LEAKAGE =      389744.3567        STREAM LEAKAGE =        4236.3517

            TOTAL IN =    21310589.9053              TOTAL IN =      231636.8468

          OUT:                                     OUT:
          ----                                     ----
             STORAGE =           0.0000               STORAGE =           0.0000
       CONSTANT HEAD =           0.0000         CONSTANT HEAD =           0.0000
               WELLS =     3687133.8335                 WELLS =       40077.5417
            RECHARGE =           0.0000              RECHARGE =           0.0000
      STREAM LEAKAGE =    17623456.3623        STREAM LEAKAGE =      191559.3083

           TOTAL OUT =    21310590.1958             TOTAL OUT =      231636.8500

            IN - OUT =          -0.2905              IN - OUT =      -3.1571E-03

 PERCENT DISCREPANCY =          -0.00     PERCENT DISCREPANCY =          -0.00






         TIME SUMMARY AT END OF TIME STEP    1 IN STRESS PERIOD    1
                    SECONDS     MINUTES      HOURS       DAYS        YEARS
                    -----------------------------------------------------------
   TIME STEP LENGTH 7.94880E+06 1.32480E+05  2208.0      92.000     0.25188    
 STRESS PERIOD TIME 7.94880E+06 1.32480E+05  2208.0      92.000     0.25188    
         TOTAL TIME 7.94880E+06 1.32480E+05  2208.0      92.000     0.25188    
1
1
                            STRESS PERIOD NO.    2, LENGTH =   91.00000    
                            -----------------------------------------------

                              NUMBER OF TIME STEPS =     1

                               MULTIPLIER FOR DELT =     1.500

                            INITIAL TIME STEP SIZE =   91.00000    

 WELL NO.  LAYER   ROW   COL   STRESS RATE         
 --------------------------------------------------
      1      1      5     14      -8335.    
      2      1     14     19     -0.1115E+05
      3      1     20     20      -8343.    
      4      1      5     29     -0.1225E+05

      4 WELLS

                 RECHARGE =  2.000000E-03

 REUSING STREAM SEGMENT DATA FROM LAST STRESS PERIOD
 
 SOLVING FOR HEAD 


     7 CALLS TO PCG ROUTINE FOR TIME STEP   1 IN STRESS PERIOD    2
    27 TOTAL ITERATIONS

 OUTPUT CONTROL FOR STRESS PERIOD    2   TIME STEP    1
    SAVE BUDGET
    SAVE HEAD FOR ALL LAYERS
    PRINT HEAD FOR ALL LAYERS
 UBDSV2 SAVING "STREAMFLOW OUT  " ON UNIT  50 AT TIME STEP  1, STRESS PERIOD   2



 STREAM LISTING     PERIOD      2   STEP        1

 LAYER ROW COL. STREAM  RCH.  FLOW INTO     FLOW TO   FLOW OUT OF   OVRLND.     DIRECT     STREAM       STREAM     STREAM     STREAM   STREAMBED  STREAMBED
                SEG.NO.  NO.  STRM. RCH.    AQUIFER    STRM. RCH.    RUNOFF     PRECIP       ET          HEAD       DEPTH      WIDTH   CONDCTNC.   GRADIENT

   1   13    1     1     1    1.0000E+05 -3.9523E+03   1.0395E+05  0.000E+00  0.000E+00  0.000E+00  4.84077E+01  1.464E-01  2.000E+01  2.000E+04 -1.976E-01
   1   13    2     1     2    1.0395E+05 -5.2117E+03   1.0916E+05  0.000E+00  0.000E+00  0.000E+00  4.79344E+01  1.503E-01  2.000E+01  2.000E+04 -2.606E-01
   1   14    3     1     3    1.0916E+05 -1.1116E+03   1.1028E+05  0.000E+00  0.000E+00  0.000E+00  4.74597E+01  1.529E-01  2.000E+01  2.000E+04 -5.558E-02
   1   15    4     1     4    1.1028E+05 -1.1394E+03   1.1141E+05  0.000E+00  0.000E+00  0.000E+00  4.69834E+01  1.539E-01  2.000E+01  2.000E+04 -5.697E-02
   1   16    5     1     5    1.1141E+05 -4.2208E+03   1.1564E+05  0.000E+00  0.000E+00  0.000E+00  4.65084E+01  1.561E-01  2.000E+01  2.000E+04 -2.110E-01
   1   16    6     1     6    1.1564E+05 -2.4796E+03   1.1812E+05  0.000E+00  0.000E+00  0.000E+00  4.60338E+01  1.588E-01  2.000E+01  2.000E+04 -1.240E-01
   1   16    7     1     7    1.1812E+05 -2.3765E+03   1.2049E+05  0.000E+00  0.000E+00  0.000E+00  4.55585E+01  1.608E-01  2.000E+01  2.000E+04 -1.188E-01
   1   16    8     1     8    1.2049E+05 -2.3337E+03   1.2283E+05  0.000E+00  0.000E+00  0.000E+00  4.50832E+01  1.627E-01  2.000E+01  2.000E+04 -1.167E-01
   1   16    9     1     9    1.2283E+05 -2.2925E+03   1.2512E+05  0.000E+00  0.000E+00  0.000E+00  4.46077E+01  1.646E-01  2.000E+01  2.000E+04 -1.146E-01
   1   16   10     1    10    1.2512E+05 -2.2369E+03   1.2735E+05  0.000E+00  0.000E+00  0.000E+00  4.41323E+01  1.664E-01  2.000E+01  2.000E+04 -1.118E-01
   1   16   11     1    11    1.2735E+05 -2.1869E+03   1.2954E+05  0.000E+00  0.000E+00  0.000E+00  4.36567E+01  1.681E-01  2.000E+01  2.000E+04 -1.093E-01
   1   16   12     1    12    1.2954E+05 -3.6461E+03   1.3319E+05  0.000E+00  0.000E+00  0.000E+00  4.31817E+01  1.704E-01  2.000E+01  2.000E+04 -1.823E-01
   1   15   13     1    13    1.3319E+05 -3.5047E+03   1.3669E+05  0.000E+00  0.000E+00  0.000E+00  4.27072E+01  1.731E-01  2.000E+01  2.000E+04 -1.752E-01
   1   14   14     1    14    1.3669E+05 -3.6937E+03   1.4039E+05  0.000E+00  0.000E+00  0.000E+00  4.22327E+01  1.759E-01  2.000E+01  2.000E+04 -1.847E-01
   1   13   15     1    15    1.4039E+05 -3.8532E+03   1.4424E+05  0.000E+00  0.000E+00  0.000E+00  4.17583E+01  1.788E-01  2.000E+01  2.000E+04 -1.927E-01
   1   12   16     1    16    1.4424E+05 -4.8156E+03   1.4906E+05  0.000E+00  0.000E+00  0.000E+00  4.12843E+01  1.820E-01  2.000E+01  2.000E+04 -2.408E-01
   1   12   17     1    17    1.4906E+05 -2.8098E+03   1.5187E+05  0.000E+00  0.000E+00  0.000E+00  4.08098E+01  1.848E-01  2.000E+01  2.000E+04 -1.405E-01
   1   12   18     1    18    1.5187E+05 -2.2682E+03   1.5413E+05  0.000E+00  0.000E+00  0.000E+00  4.03344E+01  1.867E-01  2.000E+01  2.000E+04 -1.134E-01
   1   12   19     1    19    1.5413E+05 -2.8256E+03   1.5696E+05  0.000E+00  0.000E+00  0.000E+00  3.98590E+01  1.886E-01  2.000E+01  2.000E+04 -1.413E-01
   1   13   20     1    20    1.5696E+05 -5.4317E+02   1.5750E+05  0.000E+00  0.000E+00  0.000E+00  3.93830E+01  1.898E-01  2.000E+01  2.000E+04 -2.716E-02
   1   14   21     1    21    1.5750E+05 -1.0231E+03   1.5853E+05  0.000E+00  0.000E+00  0.000E+00  3.89063E+01  1.903E-01  2.000E+01  2.000E+04 -5.116E-02
   1   14   22     1    22    1.5853E+05  4.7079E+03   1.5382E+05  0.000E+00  0.000E+00  0.000E+00  3.84276E+01  1.890E-01  2.000E+01  2.000E+04  2.354E-01
   1    9   30     2     1    5.0000E+04 -3.6397E+02   5.0364E+04  0.000E+00  0.000E+00  0.000E+00  4.02411E+01  1.161E-01  2.000E+01  2.000E+04 -1.820E-02
   1    9   29     2     2    5.0364E+04 -7.5651E+02   5.1120E+04  0.000E+00  0.000E+00  0.000E+00  3.99919E+01  1.169E-01  2.000E+01  2.000E+04 -3.783E-02
   1    9   28     2     3    5.1120E+04 -1.2602E+03   5.2381E+04  0.000E+00  0.000E+00  0.000E+00  3.97433E+01  1.183E-01  2.000E+01  2.000E+04 -6.301E-02
   1    9   27     2     4    5.2381E+04 -3.1833E+03   5.5564E+04  0.000E+00  0.000E+00  0.000E+00  3.94963E+01  1.213E-01  2.000E+01  2.000E+04 -1.592E-01
   1   10   26     2     5    5.5564E+04 -3.0643E+03   5.8628E+04  0.000E+00  0.000E+00  0.000E+00  3.92505E+01  1.255E-01  2.000E+01  2.000E+04 -1.532E-01
   1   11   25     2     6    5.8628E+04 -2.9776E+03   6.1606E+04  0.000E+00  0.000E+00  0.000E+00  3.90044E+01  1.294E-01  2.000E+01  2.000E+04 -1.489E-01
   1   12   24     2     7    6.1606E+04 -2.9649E+03   6.4571E+04  0.000E+00  0.000E+00  0.000E+00  3.87582E+01  1.332E-01  2.000E+01  2.000E+04 -1.482E-01
   1   13   23     2     8    6.4571E+04 -5.7597E+02   6.5147E+04  0.000E+00  0.000E+00  0.000E+00  3.85104E+01  1.354E-01  2.000E+01  2.000E+04 -2.880E-02
   1   14   22     2     9    6.5147E+04  1.3541E+03   6.3793E+04  0.000E+00  0.000E+00  0.000E+00  3.82600E+01  1.350E-01  2.000E+01  2.000E+04  6.770E-02
   1   14   22     3     1    2.1761E+05 -8.8596E+03   2.2647E+05  0.000E+00  0.000E+00  0.000E+00  3.77493E+01  1.937E-01  2.000E+01  2.000E+04 -4.430E-01
   1   15   23     3     2    2.2647E+05 -8.1205E+02   2.2728E+05  0.000E+00  0.000E+00  0.000E+00  3.68629E+01  1.962E-01  2.000E+01  2.000E+04 -4.060E-02
   1   15   24     3     3    2.2728E+05 -6.1483E+02   2.2790E+05  0.000E+00  0.000E+00  0.000E+00  3.59744E+01  1.966E-01  2.000E+01  2.000E+04 -3.074E-02
   1   15   25     3     4    2.2790E+05 -6.4353E+02   2.2854E+05  0.000E+00  0.000E+00  0.000E+00  3.50858E+01  1.969E-01  2.000E+01  2.000E+04 -3.218E-02
   1   15   26     3     5    2.2854E+05 -7.5863E+02   2.2930E+05  0.000E+00  0.000E+00  0.000E+00  3.41973E+01  1.973E-01  2.000E+01  2.000E+04 -3.793E-02
   1   16   27     3     6    2.2930E+05 -8.7248E+02   2.3017E+05  0.000E+00  0.000E+00  0.000E+00  3.33088E+01  1.977E-01  2.000E+01  2.000E+04 -4.362E-02
   1   17   28     3     7    2.3017E+05 -3.1315E+03   2.3330E+05  0.000E+00  0.000E+00  0.000E+00  3.24210E+01  1.987E-01  2.000E+01  2.000E+04 -1.566E-01
   1   18   29     3     8    2.3330E+05 -4.7657E+03   2.3807E+05  0.000E+00  0.000E+00  0.000E+00  3.15341E+01  2.008E-01  2.000E+01  2.000E+04 -2.383E-01
   1   18   30     3     9    2.3807E+05 -4.5150E+03   2.4258E+05  0.000E+00  0.000E+00  0.000E+00  3.06476E+01  2.031E-01  2.000E+01  2.000E+04 -2.258E-01



1
              HEAD IN LAYER   1 AT END OF TIME STEP   1 IN STRESS PERIOD    2
  ---------------------------------------------------------------------------

          1      2      3      4      5      6      7      8      9     10
         11     12     13     14     15     16     17     18     19     20
         21     22     23     24     25     26     27     28     29     30
 .........................................................................
   1  ****** ****** ****** ****** ****** ****** ****** ****** ****** ******
      ****** ****** ****** ****** ****** ****** ****** ****** ****** ******
      ****** ****** ****** ****** ****** ****** ****** ****** ****** ******
   2  ****** ****** ****** ****** ****** ****** ****** ****** ****** ******
      ****** ****** ****** ****** ****** ****** ****** ****** ****** ******
      ****** ****** ****** ****** ****** ****** ****** ****** ****** ******
   3  ****** ****** ****** ****** ****** ****** ****** ****** ****** ******
      ****** ****** ****** ****** ****** ****** ****** ****** ****** ******
      ****** ****** ****** ****** ****** ****** ****** ****** ****** ******
   4  ****** ****** ****** ****** ****** ****** ****** ****** ****** ******
      ****** ****** ****** ****** ****** ****** ****** ****** ****** ******
      ****** ****** ****** ****** ****** ****** ****** ****** ****** ******
   5  ****** ****** ****** ****** ****** ****** ****** ****** ****** ******
      ****** ****** ****** ****** ****** ****** ****** ****** ****** ******
      ****** ****** ****** ****** ****** ****** ****** ****** ****** ******
   6  ****** ****** ****** ****** ****** ****** ****** ****** ****** ******
      ****** ****** ****** ****** ****** ****** ****** ****** ****** ******
      ****** ****** ****** ****** ****** ****** ****** ****** ****** ******
   7  ****** ****** ****** ****** ****** ****** ****** ****** ****** ******
      ****** ****** ****** ****** ****** ****** ****** ****** ****** ******
      ****** ****** ****** ****** ****** ****** ****** ****** ****** ******
   8  ****** ****** ****** ****** ****** ****** ****** ****** ****** ******
      ****** ****** ****** ****** ****** ****** ****** ****** ****** ******
      ****** ****** ****** ****** ****** ****** ****** ****** ****** ******
   9  ****** ****** ****** ****** ****** ****** ****** ****** ****** ******
      ****** ****** ****** ****** ****** ****** ****** ****** ****** ******
      ****** ****** ****** ****** ****** ****** ****** ****** ****** ******
  10  ****** ****** ****** ****** ****** ****** ****** ****** ****** ******
      ****** ****** ****** ****** ****** ****** ****** ****** ****** ******
      ****** ****** ****** ****** ****** ****** ****** ****** ****** ******
  11  ****** ****** ****** ****** ****** ****** ****** ****** ****** ******
      ****** ****** ****** ****** ****** ****** ****** ****** ****** ******
      ****** ****** ****** ****** ****** ****** ****** ****** ****** ******
  12  ****** ****** ****** ****** ****** ****** ****** ****** ****** ******
      ****** ****** ****** ****** ****** ****** ****** ****** ****** ******
      ****** ****** ****** ****** ****** ****** ****** ****** ****** ******
  13  ****** ****** ****** ****** ****** ****** ****** ****** ****** ******
      ****** ****** ****** ****** ****** ****** ****** ****** ****** ******
      ****** ****** ****** ****** ****** ****** ****** ****** ****** ******
  14  ****** ****** ****** ****** ****** ****** ****** ****** ****** ******
      ****** ****** ****** ****** ****** ****** ****** ****** ****** ******
      ****** ****** ****** ****** ****** ****** ****** ****** ****** ******
  15  ****** ****** ****** ****** ****** ****** ****** ****** ****** ******
      ****** ****** ****** ****** ****** ****** ****** ****** ****** ******
      ****** ****** ****** ****** ****** ****** ****** ****** ****** ******
  16  ****** ****** ****** ****** ****** ****** ****** ****** ****** ******
      ****** ****** ****** ****** ****** ****** ****** ****** ****** ******
      ****** ****** ****** ****** ****** ****** ****** ****** ****** ******
  17  ****** ****** ****** ****** ****** ****** ****** ****** ****** ******
      ****** ****** ****** ****** ****** ****** ****** ****** ****** ******
      ****** ****** ****** ****** ****** ****** ****** ****** ****** ******
  18  ****** ****** ****** ****** ****** ****** ****** ****** ****** ******
      ****** ****** ****** ****** ****** ****** ****** ****** ****** ******
      ****** ****** ****** ****** ****** ****** ****** ****** ****** ******
  19  ****** ****** ****** ****** ****** ****** ****** ****** ****** ******
      ****** ****** ****** ****** ****** ****** ****** ****** ****** ******
      ****** ****** ****** ****** ****** ****** ****** ****** ****** ******
  20  ****** ****** ****** ****** ****** ****** ****** ****** ****** ******
      ****** ****** ****** ****** ****** ****** ****** ****** ****** ******
      ****** ****** ****** ****** ****** ****** ****** ****** ****** ******
  21  ****** ****** ****** ****** ****** ****** ****** ****** ****** ******
      ****** ****** ****** ****** ****** ****** ****** ****** ****** ******
      ****** ****** ****** ****** ****** ****** ****** ****** ****** ******
  22  ****** ****** ****** ****** ****** ****** ****** ****** ****** ******
      ****** ****** ****** ****** ****** ****** ****** ****** ****** ******
      ****** ****** ****** ****** ****** ****** ****** ****** ****** ******
  23  ****** ****** ****** ****** ****** ****** ****** ****** ****** ******
      ****** ****** ****** ****** ****** ****** ****** ****** ****** ******
      ****** ****** ****** ****** ****** ****** ****** ****** ****** ******
  24  ****** ****** ****** ****** ****** ****** ****** ****** ****** ******
      ****** ****** ****** ****** ****** ****** ****** ****** ****** ******
      ****** ****** ****** ****** ****** ****** ****** ****** ****** ******
  25  ****** ****** ****** ****** ****** ****** ****** ****** ****** ******
      ****** ****** ****** ****** ****** ****** ****** ****** ****** ******
      ****** ****** ****** ****** ****** ****** ****** ****** ****** ******

 HEAD WILL BE SAVED ON UNIT   51 AT END OF TIME STEP    1, STRESS PERIOD    2
1
  VOLUMETRIC BUDGET FOR ENTIRE MODEL AT END OF TIME STEP    1, STRESS PERIOD   2
  ------------------------------------------------------------------------------

     CUMULATIVE VOLUMES      L**3       RATES FOR THIS TIME STEP      L**3/T
     ------------------                 ------------------------

           IN:                                      IN:
           ---                                      ---
             STORAGE =    23712967.6246               STORAGE =       58425.9371
       CONSTANT HEAD =     2987210.3434         CONSTANT HEAD =       19034.8587
               WELLS =           0.0000                 WELLS =           0.0000
            RECHARGE =     6292800.0000              RECHARGE =       55200.0000
      STREAM LEAKAGE =      941385.1132        STREAM LEAKAGE =        6061.9863

            TOTAL IN =    33934363.0812              TOTAL IN =      138722.7822

          OUT:                                     OUT:
          ----                                     ----
             STORAGE =           0.0000               STORAGE =           0.0000
       CONSTANT HEAD =           0.0000         CONSTANT HEAD =           0.0000
               WELLS =     7334190.1253                 WELLS =       40077.5417
            RECHARGE =           0.0000              RECHARGE =           0.0000
      STREAM LEAKAGE =    26600174.2315        STREAM LEAKAGE =       98645.2513

           TOTAL OUT =    33934364.3568             TOTAL OUT =      138722.7930

            IN - OUT =          -1.2756              IN - OUT =      -1.0826E-02

 PERCENT DISCREPANCY =          -0.00     PERCENT DISCREPANCY =          -0.00






         TIME SUMMARY AT END OF TIME STEP    1 IN STRESS PERIOD    2
                    SECONDS     MINUTES      HOURS       DAYS        YEARS
                    -----------------------------------------------------------
   TIME STEP LENGTH 7.86240E+06 1.31040E+05  2184.0      91.000     0.24914    
 STRESS PERIOD TIME 7.86240E+06 1.31040E+05  2184.0      91.000     0.24914    
         TOTAL TIME 1.58112E+07 2.63520E+05  4392.0      183.00     0.50103    
1
1
                            STRESS PERIOD NO.    3, LENGTH =   91.00000    
                            -----------------------------------------------

                              NUMBER OF TIME STEPS =     1

                               MULTIPLIER FOR DELT =     1.500

                            INITIAL TIME STEP SIZE =   91.00000    

 WELL NO.  LAYER   ROW   COL   STRESS RATE         
 --------------------------------------------------
      1      1      5     14      -8335.    
      2      1     14     19     -0.1115E+05
      3      1     20     20      -8343.    
      4      1      5     29     -0.1225E+05

      4 WELLS

                 RECHARGE =   0.00000    

 REUSING STREAM SEGMENT DATA FROM LAST STRESS PERIOD
 
 SOLVING FOR HEAD 


     7 CALLS TO PCG ROUTINE FOR TIME STEP   1 IN STRESS PERIOD    3
    27 TOTAL ITERATIONS

 OUTPUT CONTROL FOR STRESS PERIOD    3   TIME STEP    1
    SAVE BUDGET
    SAVE HEAD FOR ALL LAYERS
    PRINT HEAD FOR ALL LAYERS
 UBDSV2 SAVING "STREAMFLOW OUT  " ON UNIT  50 AT TIME STEP  1, STRESS PERIOD   3



 STREAM LISTING     PERIOD      3   STEP        1

 LAYER ROW COL. STREAM  RCH.  FLOW INTO     FLOW TO   FLOW OUT OF   OVRLND.     DIRECT     STREAM       STREAM     STREAM     STREAM   STREAMBED  STREAMBED
                SEG.NO.  NO.  STRM. RCH.    AQUIFER    STRM. RCH.    RUNOFF     PRECIP       ET          HEAD       DEPTH      WIDTH   CONDCTNC.   GRADIENT

   1   13    1     1     1    1.0000E+05 -2.6694E+03   1.0267E+05  0.000E+00  0.000E+00  0.000E+00  4.84072E+01  1.458E-01  2.000E+01  2.000E+04 -1.335E-01
   1   13    2     1     2    1.0267E+05 -3.7728E+03   1.0644E+05  0.000E+00  0.000E+00  0.000E+00  4.79327E+01  1.486E-01  2.000E+01  2.000E+04 -1.886E-01
   1   14    3     1     3    1.0644E+05 -6.4737E+02   1.0709E+05  0.000E+00  0.000E+00  0.000E+00  4.74573E+01  1.504E-01  2.000E+01  2.000E+04 -3.237E-02
   1   15    4     1     4    1.0709E+05 -6.3116E+02   1.0772E+05  0.000E+00  0.000E+00  0.000E+00  4.69805E+01  1.510E-01  2.000E+01  2.000E+04 -3.156E-02
   1   16    5     1     5    1.0772E+05 -2.4100E+03   1.1013E+05  0.000E+00  0.000E+00  0.000E+00  4.65045E+01  1.523E-01  2.000E+01  2.000E+04 -1.205E-01
   1   16    6     1     6    1.1013E+05 -1.4643E+03   1.1160E+05  0.000E+00  0.000E+00  0.000E+00  4.60289E+01  1.539E-01  2.000E+01  2.000E+04 -7.322E-02
   1   16    7     1     7    1.1160E+05 -1.4167E+03   1.1301E+05  0.000E+00  0.000E+00  0.000E+00  4.55528E+01  1.551E-01  2.000E+01  2.000E+04 -7.083E-02
   1   16    8     1     8    1.1301E+05 -1.3879E+03   1.1440E+05  0.000E+00  0.000E+00  0.000E+00  4.50767E+01  1.562E-01  2.000E+01  2.000E+04 -6.939E-02
   1   16    9     1     9    1.1440E+05 -1.3460E+03   1.1575E+05  0.000E+00  0.000E+00  0.000E+00  4.46005E+01  1.574E-01  2.000E+01  2.000E+04 -6.730E-02
   1   16   10     1    10    1.1575E+05 -1.2836E+03   1.1703E+05  0.000E+00  0.000E+00  0.000E+00  4.41244E+01  1.584E-01  2.000E+01  2.000E+04 -6.418E-02
   1   16   11     1    11    1.1703E+05 -1.2168E+03   1.1825E+05  0.000E+00  0.000E+00  0.000E+00  4.36481E+01  1.595E-01  2.000E+01  2.000E+04 -6.084E-02
   1   16   12     1    12    1.1825E+05 -1.9304E+03   1.2018E+05  0.000E+00  0.000E+00  0.000E+00  4.31721E+01  1.607E-01  2.000E+01  2.000E+04 -9.652E-02
   1   15   13     1    13    1.2018E+05 -1.7436E+03   1.2192E+05  0.000E+00  0.000E+00  0.000E+00  4.26963E+01  1.622E-01  2.000E+01  2.000E+04 -8.718E-02
   1   14   14     1    14    1.2192E+05 -1.8742E+03   1.2379E+05  0.000E+00  0.000E+00  0.000E+00  4.22205E+01  1.637E-01  2.000E+01  2.000E+04 -9.371E-02
   1   13   15     1    15    1.2379E+05 -2.0216E+03   1.2582E+05  0.000E+00  0.000E+00  0.000E+00  4.17448E+01  1.652E-01  2.000E+01  2.000E+04 -1.011E-01
   1   12   16     1    16    1.2582E+05 -2.9125E+03   1.2873E+05  0.000E+00  0.000E+00  0.000E+00  4.12694E+01  1.672E-01  2.000E+01  2.000E+04 -1.456E-01
   1   12   17     1    17    1.2873E+05 -1.4330E+03   1.3016E+05  0.000E+00  0.000E+00  0.000E+00  4.07939E+01  1.689E-01  2.000E+01  2.000E+04 -7.165E-02
   1   12   18     1    18    1.3016E+05 -9.1292E+02   1.3107E+05  0.000E+00  0.000E+00  0.000E+00  4.03175E+01  1.698E-01  2.000E+01  2.000E+04 -4.565E-02
   1   12   19     1    19    1.3107E+05 -1.1326E+03   1.3221E+05  0.000E+00  0.000E+00  0.000E+00  3.98410E+01  1.706E-01  2.000E+01  2.000E+04 -5.663E-02
   1   13   20     1    20    1.3221E+05  1.0214E+03   1.3119E+05  0.000E+00  0.000E+00  0.000E+00  3.93638E+01  1.706E-01  2.000E+01  2.000E+04  5.107E-02
   1   14   21     1    21    1.3119E+05  6.0249E+02   1.3058E+05  0.000E+00  0.000E+00  0.000E+00  3.88859E+01  1.700E-01  2.000E+01  2.000E+04  3.012E-02
   1   14   22     1    22    1.3058E+05  5.1001E+03   1.2548E+05  0.000E+00  0.000E+00  0.000E+00  3.84064E+01  1.678E-01  2.000E+01  2.000E+04  2.550E-01
   1    9   30     2     1    5.0000E+04  9.7827E+02   4.9022E+04  0.000E+00  0.000E+00  0.000E+00  4.02402E+01  1.152E-01  2.000E+01  2.000E+04  4.891E-02
   1    9   29     2     2    4.9022E+04  5.8193E+02   4.8440E+04  0.000E+00  0.000E+00  0.000E+00  3.99891E+01  1.141E-01  2.000E+01  2.000E+04  2.910E-02
   1    9   28     2     3    4.8440E+04  9.0598E+01   4.8349E+04  0.000E+00  0.000E+00  0.000E+00  3.97386E+01  1.136E-01  2.000E+01  2.000E+04  4.530E-03
   1    9   27     2     4    4.8349E+04 -1.2389E+03   4.9588E+04  0.000E+00  0.000E+00  0.000E+00  3.94894E+01  1.144E-01  2.000E+01  2.000E+04 -6.194E-02
   1   10   26     2     5    4.9588E+04 -1.3251E+03   5.0913E+04  0.000E+00  0.000E+00  0.000E+00  3.92412E+01  1.162E-01  2.000E+01  2.000E+04 -6.626E-02
   1   11   25     2     6    5.0913E+04 -1.3840E+03   5.2297E+04  0.000E+00  0.000E+00  0.000E+00  3.89931E+01  1.181E-01  2.000E+01  2.000E+04 -6.920E-02
   1   12   24     2     7    5.2297E+04 -1.5478E+03   5.3845E+04  0.000E+00  0.000E+00  0.000E+00  3.87451E+01  1.201E-01  2.000E+01  2.000E+04 -7.739E-02
   1   13   23     2     8    5.3845E+04 -2.3142E+02   5.4076E+04  0.000E+00  0.000E+00  0.000E+00  3.84963E+01  1.213E-01  2.000E+01  2.000E+04 -1.157E-02
   1   14   22     2     9    5.4076E+04  1.8754E+03   5.2201E+04  0.000E+00  0.000E+00  0.000E+00  3.82452E+01  1.202E-01  2.000E+01  2.000E+04  9.377E-02
   1   14   22     3     1    1.7768E+05 -8.4793E+03   1.8616E+05  0.000E+00  0.000E+00  0.000E+00  3.77274E+01  1.719E-01  2.000E+01  2.000E+04 -4.240E-01
   1   15   23     3     2    1.8616E+05 -3.8767E+02   1.8655E+05  0.000E+00  0.000E+00  0.000E+00  3.68411E+01  1.744E-01  2.000E+01  2.000E+04 -1.938E-02
   1   15   24     3     3    1.8655E+05 -2.7893E+02   1.8683E+05  0.000E+00  0.000E+00  0.000E+00  3.59523E+01  1.746E-01  2.000E+01  2.000E+04 -1.395E-02
   1   15   25     3     4    1.8683E+05 -2.9482E+02   1.8712E+05  0.000E+00  0.000E+00  0.000E+00  3.50636E+01  1.747E-01  2.000E+01  2.000E+04 -1.474E-02
   1   15   26     3     5    1.8712E+05 -3.4914E+02   1.8747E+05  0.000E+00  0.000E+00  0.000E+00  3.41749E+01  1.749E-01  2.000E+01  2.000E+04 -1.746E-02
   1   16   27     3     6    1.8747E+05 -3.9646E+02   1.8787E+05  0.000E+00  0.000E+00  0.000E+00  3.32862E+01  1.751E-01  2.000E+01  2.000E+04 -1.982E-02
   1   17   28     3     7    1.8787E+05 -1.6767E+03   1.8955E+05  0.000E+00  0.000E+00  0.000E+00  3.23979E+01  1.757E-01  2.000E+01  2.000E+04 -8.384E-02
   1   18   29     3     8    1.8955E+05 -3.1534E+03   1.9270E+05  0.000E+00  0.000E+00  0.000E+00  3.15104E+01  1.770E-01  2.000E+01  2.000E+04 -1.577E-01
   1   18   30     3     9    1.9270E+05 -3.3215E+03   1.9602E+05  0.000E+00  0.000E+00  0.000E+00  3.06233E+01  1.788E-01  2.000E+01  2.000E+04 -1.661E-01



1
              HEAD IN LAYER   1 AT END OF TIME STEP   1 IN STRESS PERIOD    3
  ---------------------------------------------------------------------------

          1      2      3      4      5      6      7      8      9     10
         11     12     13     14     15     16     17     18     19     20
         21     22     23     24     25     26     27     28     29     30
 .........................................................................
   1  ****** ****** ****** ****** ****** ****** ****** ****** ****** ******
      ****** ****** ****** ****** ****** ****** ****** ****** ****** ******
      ****** ****** ****** ****** ****** ****** ****** ****** ****** ******
   2  ****** ****** ****** ****** ****** ****** ****** ****** ****** ******
      ****** ****** ****** ****** ****** ****** ****** ****** ****** ******
      ****** ****** ****** ****** ****** ****** ****** ****** ****** ******
   3  ****** ****** ****** ****** ****** ****** ****** ****** ****** ******
      ****** ****** ****** ****** ****** ****** ****** ****** ****** ******
      ****** ****** ****** ****** ****** ****** ****** ****** ****** ******
   4  ****** ****** ****** ****** ****** ****** ****** ****** ****** ******
      ****** ****** ****** ****** ****** ****** ****** ****** ****** ******
      ****** ****** ****** ****** ****** ****** ****** ****** ****** ******
   5  ****** ****** ****** ****** ****** ****** ****** ****** ****** ******
      ****** ****** ****** ****** ****** ****** ****** ****** ****** ******
      ****** ****** ****** ****** ****** ****** ****** ****** ****** ******
   6  ****** ****** ****** ****** ****** ****** ****** ****** ****** ******
      ****** ****** ****** ****** ****** ****** ****** ****** ****** ******
      ****** ****** ****** ****** ****** ****** ****** ****** ****** ******
   7  ****** ****** ****** ****** ****** ****** ****** ****** ****** ******
      ****** ****** ****** ****** ****** ****** ****** ****** ****** ******
      ****** ****** ****** ****** ****** ****** ****** ****** ****** ******
   8  ****** ****** ****** ****** ****** ****** ****** ****** ****** ******
      ****** ****** ****** ****** ****** ****** ****** ****** ****** ******
      ****** ****** ****** ****** ****** ****** ****** ****** ****** ******
   9  ****** ****** ****** ****** ****** ****** ****** ****** ****** ******
      ****** ****** ****** ****** ****** ****** ****** ****** ****** ******
      ****** ****** ****** ****** ****** ****** ****** ****** ****** ******
  10  ****** ****** ****** ****** ****** ****** ****** ****** ****** ******
      ****** ****** ****** ****** ****** ****** ****** ****** ****** ******
      ****** ****** ****** ****** ****** ****** ****** ****** ****** ******
  11  ****** ****** ****** ****** ****** ****** ****** ****** ****** ******
      ****** ****** ****** ****** ****** ****** ****** ****** ****** ******
      ****** ****** ****** ****** ****** ****** ****** ****** ****** ******
  12  ****** ****** ****** ****** ****** ****** ****** ****** ****** ******
      ****** ****** ****** ****** ****** ****** ****** ****** ****** ******
      ****** ****** ****** ****** ****** ****** ****** ****** ****** ******
  13  ****** ****** ****** ****** ****** ****** ****** ****** ****** ******
      ****** ****** ****** ****** ****** ****** ****** ****** ****** ******
      ****** ****** ****** ****** ****** ****** ****** ****** ****** ******
  14  ****** ****** ****** ****** ****** ****** ****** ****** ****** ******
      ****** ****** ****** ****** ****** ****** ****** ****** ****** ******
      ****** ****** ****** ****** ****** ****** ****** ****** ****** ******
  15  ****** ****** ****** ****** ****** ****** ****** ****** ****** ******
      ****** ****** ****** ****** ****** ****** ****** ****** ****** ******
      ****** ****** ****** ****** ****** ****** ****** ****** ****** ******
  16  ****** ****** ****** ****** ****** ****** ****** ****** ****** ******
      ****** ****** ****** ****** ****** ****** ****** ****** ****** ******
      ****** ****** ****** ****** ****** ****** ****** ****** ****** ******
  17  ****** ****** ****** ****** ****** ****** ****** ****** ****** ******
      ****** ****** ****** ****** ****** ****** ****** ****** ****** ******
      ****** ****** ****** ****** ****** ****** ****** ****** ****** ******
  18  ****** ****** ****** ****** ****** ****** ****** ****** ****** ******
      ****** ****** ****** ****** ****** ****** ****** ****** ****** ******
      ****** ****** ****** ****** ****** ****** ****** ****** ****** ******
  19  ****** ****** ****** ****** ****** ****** ****** ****** ****** ******
      ****** ****** ****** ****** ****** ****** ****** ****** ****** ******
      ****** ****** ****** ****** ****** ****** ****** ****** ****** ******
  20  ****** ****** ****** ****** ****** ****** ****** ****** ****** ******
      ****** ****** ****** ****** ****** ****** ****** ****** ****** ******
      ****** ****** ****** ****** ****** ****** ****** ****** ****** ******
  21  ****** ****** ****** ****** ****** ****** ****** ****** ****** ******
      ****** ****** ****** ****** ****** ****** ****** ****** ****** ******
      ****** ****** ****** ****** ****** ****** ****** ****** ****** ******
  22  ****** ****** ****** ****** ****** ****** ****** ****** ****** ******
      ****** ****** ****** ****** ****** ****** ****** ****** ****** ******
      ****** ****** ****** ****** ****** ****** ****** ****** ****** ******
  23  ****** ****** ****** ****** ****** ****** ****** ****** ****** ******
      ****** ****** ****** ****** ****** ****** ****** ****** ****** ******
      ****** ****** ****** ****** ****** ****** ****** ****** ****** ******
  24  ****** ****** ****** ****** ****** ****** ****** ****** ****** ******
      ****** ****** ****** ****** ****** ****** ****** ****** ****** ******
      ****** ****** ****** ****** ****** ****** ****** ****** ****** ******
  25  ****** ****** ****** ****** ****** ****** ****** ****** ****** ******
      ****** ****** ****** ****** ****** ****** ****** ****** ****** ******
      ****** ****** ****** ****** ****** ****** ****** ****** ****** ******

 HEAD WILL BE SAVED ON UNIT   51 AT END OF TIME STEP    1, STRESS PERIOD    3
1
  VOLUMETRIC BUDGET FOR ENTIRE MODEL AT END OF TIME STEP    1, STRESS PERIOD   3
  ------------------------------------------------------------------------------

     CUMULATIVE VOLUMES      L**3       RATES FOR THIS TIME STEP      L**3/T
     ------------------                 ------------------------

           IN:                                      IN:
           ---                                      ---
             STORAGE =    28987520.3038               STORAGE =       57962.1174
       CONSTANT HEAD =     5547707.7291         CONSTANT HEAD =       28137.3339
               WELLS =           0.0000                 WELLS =           0.0000
            RECHARGE =     6292800.0000              RECHARGE =           0.0000
      STREAM LEAKAGE =     1874155.1493        STREAM LEAKAGE =       10250.2202

            TOTAL IN =    42702183.1822              TOTAL IN =       96349.6714

          OUT:                                     OUT:
          ----                                     ----
             STORAGE =           0.0000               STORAGE =           0.0000
       CONSTANT HEAD =           0.0000         CONSTANT HEAD =           0.0000
               WELLS =    10981246.4171                 WELLS =       40077.5417
            RECHARGE =           0.0000              RECHARGE =           0.0000
      STREAM LEAKAGE =    31720938.7473        STREAM LEAKAGE =       56272.1375

           TOTAL OUT =    42702185.1644             TOTAL OUT =       96349.6792

            IN - OUT =          -1.9822              IN - OUT =      -7.7646E-03

 PERCENT DISCREPANCY =          -0.00     PERCENT DISCREPANCY =          -0.00






         TIME SUMMARY AT END OF TIME STEP    1 IN STRESS PERIOD    3
                    SECONDS     MINUTES      HOURS       DAYS        YEARS
                    -----------------------------------------------------------
   TIME STEP LENGTH 7.86240E+06 1.31040E+05  2184.0      91.000     0.24914    
 STRESS PERIOD TIME 7.86240E+06 1.31040E+05  2184.0      91.000     0.24914    
         TOTAL TIME 2.36736E+07 3.94560E+05  6576.0      274.00     0.75017    
1
1
                            STRESS PERIOD NO.    4, LENGTH =   91.00000    
                            -----------------------------------------------

                              NUMBER OF TIME STEPS =     1

                               MULTIPLIER FOR DELT =     1.500

                            INITIAL TIME STEP SIZE =   91.00000    

 WELL NO.  LAYER   ROW   COL   STRESS RATE         
 --------------------------------------------------
      1      1      5     14      -8335.    
      2      1     14     19     -0.1115E+05
      3      1     20     20      -8343.    
      4      1      5     29     -0.1225E+05

      4 WELLS

                 RECHARGE =  1.000000E-03

 REUSING STREAM SEGMENT DATA FROM LAST STRESS PERIOD
 
 SOLVING FOR HEAD 


     6 CALLS TO PCG ROUTINE FOR TIME STEP   1 IN STRESS PERIOD    4
    23 TOTAL ITERATIONS

 OUTPUT CONTROL FOR STRESS PERIOD    4   TIME STEP    1
    SAVE BUDGET
    SAVE HEAD FOR ALL LAYERS
    PRINT HEAD FOR ALL LAYERS
 UBDSV2 SAVING "STREAMFLOW OUT  " ON UNIT  50 AT TIME STEP  1, STRESS PERIOD   4



 STREAM LISTING     PERIOD      4   STEP        1

 LAYER ROW COL. STREAM  RCH.  FLOW INTO     FLOW TO   FLOW OUT OF   OVRLND.     DIRECT     STREAM       STREAM     STREAM     STREAM   STREAMBED  STREAMBED
                SEG.NO.  NO.  STRM. RCH.    AQUIFER    STRM. RCH.    RUNOFF     PRECIP       ET          HEAD       DEPTH      WIDTH   CONDCTNC.   GRADIENT

   1   13    1     1     1    1.0000E+05 -2.4064E+03   1.0241E+05  0.000E+00  0.000E+00  0.000E+00  4.84071E+01  1.457E-01  2.000E+01  2.000E+04 -1.203E-01
   1   13    2     1     2    1.0241E+05 -3.4689E+03   1.0588E+05  0.000E+00  0.000E+00  0.000E+00  4.79323E+01  1.482E-01  2.000E+01  2.000E+04 -1.734E-01
   1   14    3     1     3    1.0588E+05 -6.1565E+02   1.0649E+05  0.000E+00  0.000E+00  0.000E+00  4.74568E+01  1.500E-01  2.000E+01  2.000E+04 -3.078E-02
   1   15    4     1     4    1.0649E+05 -5.9007E+02   1.0708E+05  0.000E+00  0.000E+00  0.000E+00  4.69800E+01  1.505E-01  2.000E+01  2.000E+04 -2.950E-02
   1   16    5     1     5    1.0708E+05 -2.0978E+03   1.0918E+05  0.000E+00  0.000E+00  0.000E+00  4.65039E+01  1.516E-01  2.000E+01  2.000E+04 -1.049E-01
   1   16    6     1     6    1.0918E+05 -1.3080E+03   1.1049E+05  0.000E+00  0.000E+00  0.000E+00  4.60280E+01  1.530E-01  2.000E+01  2.000E+04 -6.540E-02
   1   16    7     1     7    1.1049E+05 -1.2704E+03   1.1176E+05  0.000E+00  0.000E+00  0.000E+00  4.55518E+01  1.541E-01  2.000E+01  2.000E+04 -6.352E-02
   1   16    8     1     8    1.1176E+05 -1.2441E+03   1.1300E+05  0.000E+00  0.000E+00  0.000E+00  4.50756E+01  1.551E-01  2.000E+01  2.000E+04 -6.220E-02
   1   16    9     1     9    1.1300E+05 -1.2027E+03   1.1420E+05  0.000E+00  0.000E+00  0.000E+00  4.45993E+01  1.562E-01  2.000E+01  2.000E+04 -6.014E-02
   1   16   10     1    10    1.1420E+05 -1.1410E+03   1.1535E+05  0.000E+00  0.000E+00  0.000E+00  4.41230E+01  1.571E-01  2.000E+01  2.000E+04 -5.705E-02
   1   16   11     1    11    1.1535E+05 -1.0698E+03   1.1641E+05  0.000E+00  0.000E+00  0.000E+00  4.36467E+01  1.580E-01  2.000E+01  2.000E+04 -5.349E-02
   1   16   12     1    12    1.1641E+05 -1.6165E+03   1.1803E+05  0.000E+00  0.000E+00  0.000E+00  4.31705E+01  1.591E-01  2.000E+01  2.000E+04 -8.083E-02
   1   15   13     1    13    1.1803E+05 -1.4452E+03   1.1948E+05  0.000E+00  0.000E+00  0.000E+00  4.26945E+01  1.604E-01  2.000E+01  2.000E+04 -7.226E-02
   1   14   14     1    14    1.1948E+05 -1.5480E+03   1.2102E+05  0.000E+00  0.000E+00  0.000E+00  4.22184E+01  1.616E-01  2.000E+01  2.000E+04 -7.740E-02
   1   13   15     1    15    1.2102E+05 -1.6662E+03   1.2269E+05  0.000E+00  0.000E+00  0.000E+00  4.17424E+01  1.629E-01  2.000E+01  2.000E+04 -8.331E-02
   1   12   16     1    16    1.2269E+05 -2.4522E+03   1.2514E+05  0.000E+00  0.000E+00  0.000E+00  4.12668E+01  1.645E-01  2.000E+01  2.000E+04 -1.226E-01
   1   12   17     1    17    1.2514E+05 -1.1520E+03   1.2630E+05  0.000E+00  0.000E+00  0.000E+00  4.07909E+01  1.659E-01  2.000E+01  2.000E+04 -5.760E-02
   1   12   18     1    18    1.2630E+05 -6.5040E+02   1.2695E+05  0.000E+00  0.000E+00  0.000E+00  4.03144E+01  1.667E-01  2.000E+01  2.000E+04 -3.252E-02
   1   12   19     1    19    1.2695E+05 -8.0804E+02   1.2775E+05  0.000E+00  0.000E+00  0.000E+00  3.98377E+01  1.672E-01  2.000E+01  2.000E+04 -4.040E-02
   1   13   20     1    20    1.2775E+05  1.2432E+03   1.2651E+05  0.000E+00  0.000E+00  0.000E+00  3.93602E+01  1.671E-01  2.000E+01  2.000E+04  6.216E-02
   1   14   21     1    21    1.2651E+05  8.9675E+02   1.2561E+05  0.000E+00  0.000E+00  0.000E+00  3.88821E+01  1.662E-01  2.000E+01  2.000E+04  4.484E-02
   1   14   22     1    22    1.2561E+05  5.1503E+03   1.2046E+05  0.000E+00  0.000E+00  0.000E+00  3.84024E+01  1.638E-01  2.000E+01  2.000E+04  2.575E-01
   1    9   30     2     1    5.0000E+04  1.1187E+03   4.8881E+04  0.000E+00  0.000E+00  0.000E+00  4.02401E+01  1.151E-01  2.000E+01  2.000E+04  5.593E-02
   1    9   29     2     2    4.8881E+04  7.2958E+02   4.8152E+04  0.000E+00  0.000E+00  0.000E+00  3.99888E+01  1.138E-01  2.000E+01  2.000E+04  3.648E-02
   1    9   28     2     3    4.8152E+04  2.6042E+02   4.7891E+04  0.000E+00  0.000E+00  0.000E+00  3.97381E+01  1.131E-01  2.000E+01  2.000E+04  1.302E-02
   1    9   27     2     4    4.7891E+04 -8.8687E+02   4.8778E+04  0.000E+00  0.000E+00  0.000E+00  3.94885E+01  1.135E-01  2.000E+01  2.000E+04 -4.434E-02
   1   10   26     2     5    4.8778E+04 -1.1165E+03   4.9895E+04  0.000E+00  0.000E+00  0.000E+00  3.92399E+01  1.149E-01  2.000E+01  2.000E+04 -5.582E-02
   1   11   25     2     6    4.9895E+04 -1.2281E+03   5.1123E+04  0.000E+00  0.000E+00  0.000E+00  3.89916E+01  1.166E-01  2.000E+01  2.000E+04 -6.141E-02
   1   12   24     2     7    5.1123E+04 -1.4149E+03   5.2538E+04  0.000E+00  0.000E+00  0.000E+00  3.87434E+01  1.184E-01  2.000E+01  2.000E+04 -7.075E-02
   1   13   23     2     8    5.2538E+04 -2.5192E+02   5.2790E+04  0.000E+00  0.000E+00  0.000E+00  3.84945E+01  1.195E-01  2.000E+01  2.000E+04 -1.260E-02
   1   14   22     2     9    5.2790E+04  1.9684E+03   5.0821E+04  0.000E+00  0.000E+00  0.000E+00  3.82434E+01  1.184E-01  2.000E+01  2.000E+04  9.842E-02
   1   14   22     3     1    1.7128E+05 -8.4234E+03   1.7971E+05  0.000E+00  0.000E+00  0.000E+00  3.77238E+01  1.682E-01  2.000E+01  2.000E+04 -4.212E-01
   1   15   23     3     2    1.7971E+05 -3.4961E+02   1.8006E+05  0.000E+00  0.000E+00  0.000E+00  3.68374E+01  1.707E-01  2.000E+01  2.000E+04 -1.748E-02
   1   15   24     3     3    1.8006E+05 -2.7106E+02   1.8033E+05  0.000E+00  0.000E+00  0.000E+00  3.59487E+01  1.709E-01  2.000E+01  2.000E+04 -1.355E-02
   1   15   25     3     4    1.8033E+05 -2.8829E+02   1.8062E+05  0.000E+00  0.000E+00  0.000E+00  3.50599E+01  1.711E-01  2.000E+01  2.000E+04 -1.441E-02
   1   15   26     3     5    1.8062E+05 -3.5466E+02   1.8097E+05  0.000E+00  0.000E+00  0.000E+00  3.41712E+01  1.712E-01  2.000E+01  2.000E+04 -1.773E-02
   1   16   27     3     6    1.8097E+05 -3.9027E+02   1.8136E+05  0.000E+00  0.000E+00  0.000E+00  3.32826E+01  1.715E-01  2.000E+01  2.000E+04 -1.951E-02
   1   17   28     3     7    1.8136E+05 -1.5886E+03   1.8295E+05  0.000E+00  0.000E+00  0.000E+00  3.23942E+01  1.720E-01  2.000E+01  2.000E+04 -7.943E-02
   1   18   29     3     8    1.8295E+05 -2.8827E+03   1.8583E+05  0.000E+00  0.000E+00  0.000E+00  3.15066E+01  1.733E-01  2.000E+01  2.000E+04 -1.441E-01
   1   18   30     3     9    1.8583E+05 -3.1815E+03   1.8901E+05  0.000E+00  0.000E+00  0.000E+00  3.06194E+01  1.750E-01  2.000E+01  2.000E+04 -1.591E-01



1
              HEAD IN LAYER   1 AT END OF TIME STEP   1 IN STRESS PERIOD    4
  ---------------------------------------------------------------------------

          1      2      3      4      5      6      7      8      9     10
         11     12     13     14     15     16     17     18     19     20
         21     22     23     24     25     26     27     28     29     30
 .........................................................................
   1  ****** ****** ****** ****** ****** ****** ****** ****** ****** ******
      ****** ****** ****** ****** ****** ****** ****** ****** ****** ******
      ****** ****** ****** ****** ****** ****** ****** ****** ****** ******
   2  ****** ****** ****** ****** ****** ****** ****** ****** ****** ******
      ****** ****** ****** ****** ****** ****** ****** ****** ****** ******
      ****** ****** ****** ****** ****** ****** ****** ****** ****** ******
   3  ****** ****** ****** ****** ****** ****** ****** ****** ****** ******
      ****** ****** ****** ****** ****** ****** ****** ****** ****** ******
      ****** ****** ****** ****** ****** ****** ****** ****** ****** ******
   4  ****** ****** ****** ****** ****** ****** ****** ****** ****** ******
      ****** ****** ****** ****** ****** ****** ****** ****** ****** ******
      ****** ****** ****** ****** ****** ****** ****** ****** ****** ******
   5  ****** ****** ****** ****** ****** ****** ****** ****** ****** ******
      ****** ****** ****** ****** ****** ****** ****** ****** ****** ******
      ****** ****** ****** ****** ****** ****** ****** ****** ****** ******
   6  ****** ****** ****** ****** ****** ****** ****** ****** ****** ******
      ****** ****** ****** ****** ****** ****** ****** ****** ****** ******
      ****** ****** ****** ****** ****** ****** ****** ****** ****** ******
   7  ****** ****** ****** ****** ****** ****** ****** ****** ****** ******
      ****** ****** ****** ****** ****** ****** ****** ****** ****** ******
      ****** ****** ****** ****** ****** ****** ****** ****** ****** ******
   8  ****** ****** ****** ****** ****** ****** ****** ****** ****** ******
      ****** ****** ****** ****** ****** ****** ****** ****** ****** ******
      ****** ****** ****** ****** ****** ****** ****** ****** ****** ******
   9  ****** ****** ****** ****** ****** ****** ****** ****** ****** ******
      ****** ****** ****** ****** ****** ****** ****** ****** ****** ******
      ****** ****** ****** ****** ****** ****** ****** ****** ****** ******
  10  ****** ****** ****** ****** ****** ****** ****** ****** ****** ******
      ****** ****** ****** ****** ****** ****** ****** ****** ****** ******
      ****** ****** ****** ****** ****** ****** ****** ****** ****** ******
  11  ****** ****** ****** ****** ****** ****** ****** ****** ****** ******
      ****** ****** ****** ****** ****** ****** ****** ****** ****** ******
      ****** ****** ****** ****** ****** ****** ****** ****** ****** ******
  12  ****** ****** ****** ****** ****** ****** ****** ****** ****** ******
      ****** ****** ****** ****** ****** ****** ****** ****** ****** ******
      ****** ****** ****** ****** ****** ****** ****** ****** ****** ******
  13  ****** ****** ****** ****** ****** ****** ****** ****** ****** ******
      ****** ****** ****** ****** ****** ****** ****** ****** ****** ******
      ****** ****** ****** ****** ****** ****** ****** ****** ****** ******
  14  ****** ****** ****** ****** ****** ****** ****** ****** ****** ******
      ****** ****** ****** ****** ****** ****** ****** ****** ****** ******
      ****** ****** ****** ****** ****** ****** ****** ****** ****** ******
  15  ****** ****** ****** ****** ****** ****** ****** ****** ****** ******
      ****** ****** ****** ****** ****** ****** ****** ****** ****** ******
      ****** ****** ****** ****** ****** ****** ****** ****** ****** ******
  16  ****** ****** ****** ****** ****** ****** ****** ****** ****** ******
      ****** ****** ****** ****** ****** ****** ****** ****** ****** ******
      ****** ****** ****** ****** ****** ****** ****** ****** ****** ******
  17  ****** ****** ****** ****** ****** ****** ****** ****** ****** ******
      ****** ****** ****** ****** ****** ****** ****** ****** ****** ******
      ****** ****** ****** ****** ****** ****** ****** ****** ****** ******
  18  ****** ****** ****** ****** ****** ****** ****** ****** ****** ******
      ****** ****** ****** ****** ****** ****** ****** ****** ****** ******
      ****** ****** ****** ****** ****** ****** ****** ****** ****** ******
  19  ****** ****** ****** ****** ****** ****** ****** ****** ****** ******
      ****** ****** ****** ****** ****** ****** ****** ****** ****** ******
      ****** ****** ****** ****** ****** ****** ****** ****** ****** ******
  20  ****** ****** ****** ****** ****** ****** ****** ****** ****** ******
      ****** ****** ****** ****** ****** ****** ****** ****** ****** ******
      ****** ****** ****** ****** ****** ****** ****** ****** ****** ******
  21  ****** ****** ****** ****** ****** ****** ****** ****** ****** ******
      ****** ****** ****** ****** ****** ****** ****** ****** ****** ******
      ****** ****** ****** ****** ****** ****** ****** ****** ****** ******
  22  ****** ****** ****** ****** ****** ****** ****** ****** ****** ******
      ****** ****** ****** ****** ****** ****** ****** ****** ****** ******
      ****** ****** ****** ****** ****** ****** ****** ****** ****** ******
  23  ****** ****** ****** ****** ****** ****** ****** ****** ****** ******
      ****** ****** ****** ****** ****** ****** ****** ****** ****** ******
      ****** ****** ****** ****** ****** ****** ****** ****** ****** ******
  24  ****** ****** ****** ****** ****** ****** ****** ****** ****** ******
      ****** ****** ****** ****** ****** ****** ****** ****** ****** ******
      ****** ****** ****** ****** ****** ****** ****** ****** ****** ******
  25  ****** ****** ****** ****** ****** ****** ****** ****** ****** ******
      ****** ****** ****** ****** ****** ****** ****** ****** ****** ******
      ****** ****** ****** ****** ****** ****** ****** ****** ****** ******

 HEAD WILL BE SAVED ON UNIT   51 AT END OF TIME STEP    1, STRESS PERIOD    4
1
  VOLUMETRIC BUDGET FOR ENTIRE MODEL AT END OF TIME STEP    1, STRESS PERIOD   4
  ------------------------------------------------------------------------------

     CUMULATIVE VOLUMES      L**3       RATES FOR THIS TIME STEP      L**3/T
     ------------------                 ------------------------

           IN:                                      IN:
           ---                                      ---
             STORAGE =    30846754.0770               STORAGE =       20431.1404
       CONSTANT HEAD =     8375352.1477         CONSTANT HEAD =       31073.0156
               WELLS =           0.0000                 WELLS =           0.0000
            RECHARGE =     8804400.0000              RECHARGE =       27600.0000
      STREAM LEAKAGE =     2908574.0963        STREAM LEAKAGE =       11367.2412

            TOTAL IN =    50935080.3210              TOTAL IN =       90471.3971

          OUT:                                     OUT:
          ----                                     ----
             STORAGE =        1089.4380               STORAGE =          11.9718
       CONSTANT HEAD =           0.0000         CONSTANT HEAD =           0.0000
               WELLS =    14628302.7089                 WELLS =       40077.5417
            RECHARGE =           0.0000              RECHARGE =           0.0000
      STREAM LEAKAGE =    36305690.2357        STREAM LEAKAGE =       50381.8845

           TOTAL OUT =    50935082.3825             TOTAL OUT =       90471.3980

            IN - OUT =          -2.0616              IN - OUT =      -8.7193E-04

 PERCENT DISCREPANCY =          -0.00     PERCENT DISCREPANCY =          -0.00






         TIME SUMMARY AT END OF TIME STEP    1 IN STRESS PERIOD    4
                    SECONDS     MINUTES      HOURS       DAYS        YEARS
                    -----------------------------------------------------------
   TIME STEP LENGTH 7.86240E+06 1.31040E+05  2184.0      91.000     0.24914    
 STRESS PERIOD TIME 7.86240E+06 1.31040E+05  2184.0      91.000     0.24914    
         TOTAL TIME 3.15360E+07 5.25600E+05  8760.0      365.00     0.99932    
1
1
                            STRESS PERIOD NO.    5, LENGTH =   92.00000    
                            -----------------------------------------------

                              NUMBER OF TIME STEPS =     1

                               MULTIPLIER FOR DELT =     1.500

                            INITIAL TIME STEP SIZE =   92.00000    

 WELL NO.  LAYER   ROW   COL   STRESS RATE         
 --------------------------------------------------
      1      1      5     14      -8335.    
      2      1     14     19     -0.1115E+05
      3      1     20     20      -8343.    
      4      1      5     29     -0.1225E+05

      4 WELLS

                 RECHARGE =  5.000000E-04

 REUSING STREAM SEGMENT DATA FROM LAST STRESS PERIOD
 
 SOLVING FOR HEAD 


     7 CALLS TO PCG ROUTINE FOR TIME STEP   1 IN STRESS PERIOD    5
    26 TOTAL ITERATIONS

 OUTPUT CONTROL FOR STRESS PERIOD    5   TIME STEP    1
    SAVE BUDGET
    SAVE HEAD FOR ALL LAYERS
    PRINT HEAD FOR ALL LAYERS
 UBDSV2 SAVING "STREAMFLOW OUT  " ON UNIT  50 AT TIME STEP  1, STRESS PERIOD   5



 STREAM LISTING     PERIOD      5   STEP        1

 LAYER ROW COL. STREAM  RCH.  FLOW INTO     FLOW TO   FLOW OUT OF   OVRLND.     DIRECT     STREAM       STREAM     STREAM     STREAM   STREAMBED  STREAMBED
                SEG.NO.  NO.  STRM. RCH.    AQUIFER    STRM. RCH.    RUNOFF     PRECIP       ET          HEAD       DEPTH      WIDTH   CONDCTNC.   GRADIENT

   1   13    1     1     1    1.0000E+05 -1.9691E+03   1.0197E+05  0.000E+00  0.000E+00  0.000E+00  4.84069E+01  1.455E-01  2.000E+01  2.000E+04 -9.845E-02
   1   13    2     1     2    1.0197E+05 -2.9750E+03   1.0494E+05  0.000E+00  0.000E+00  0.000E+00  4.79317E+01  1.476E-01  2.000E+01  2.000E+04 -1.487E-01
   1   14    3     1     3    1.0494E+05 -4.9053E+02   1.0543E+05  0.000E+00  0.000E+00  0.000E+00  4.74559E+01  1.491E-01  2.000E+01  2.000E+04 -2.453E-02
   1   15    4     1     4    1.0543E+05 -4.5887E+02   1.0589E+05  0.000E+00  0.000E+00  0.000E+00  4.69791E+01  1.495E-01  2.000E+01  2.000E+04 -2.294E-02
   1   16    5     1     5    1.0589E+05 -1.6601E+03   1.0755E+05  0.000E+00  0.000E+00  0.000E+00  4.65027E+01  1.504E-01  2.000E+01  2.000E+04 -8.301E-02
   1   16    6     1     6    1.0755E+05 -1.0506E+03   1.0860E+05  0.000E+00  0.000E+00  0.000E+00  4.60266E+01  1.516E-01  2.000E+01  2.000E+04 -5.253E-02
   1   16    7     1     7    1.0860E+05 -1.0226E+03   1.0963E+05  0.000E+00  0.000E+00  0.000E+00  4.55502E+01  1.524E-01  2.000E+01  2.000E+04 -5.113E-02
   1   16    8     1     8    1.0963E+05 -9.9913E+02   1.1063E+05  0.000E+00  0.000E+00  0.000E+00  4.50737E+01  1.533E-01  2.000E+01  2.000E+04 -4.996E-02
   1   16    9     1     9    1.1063E+05 -9.5977E+02   1.1159E+05  0.000E+00  0.000E+00  0.000E+00  4.45973E+01  1.541E-01  2.000E+01  2.000E+04 -4.799E-02
   1   16   10     1    10    1.1159E+05 -9.0026E+02   1.1249E+05  0.000E+00  0.000E+00  0.000E+00  4.41208E+01  1.549E-01  2.000E+01  2.000E+04 -4.501E-02
   1   16   11     1    11    1.1249E+05 -8.2686E+02   1.1331E+05  0.000E+00  0.000E+00  0.000E+00  4.36442E+01  1.556E-01  2.000E+01  2.000E+04 -4.134E-02
   1   16   12     1    12    1.1331E+05 -1.1762E+03   1.1449E+05  0.000E+00  0.000E+00  0.000E+00  4.31678E+01  1.564E-01  2.000E+01  2.000E+04 -5.881E-02
   1   15   13     1    13    1.1449E+05 -9.7979E+02   1.1547E+05  0.000E+00  0.000E+00  0.000E+00  4.26914E+01  1.573E-01  2.000E+01  2.000E+04 -4.899E-02
   1   14   14     1    14    1.1547E+05 -1.0510E+03   1.1652E+05  0.000E+00  0.000E+00  0.000E+00  4.22149E+01  1.581E-01  2.000E+01  2.000E+04 -5.255E-02
   1   13   15     1    15    1.1652E+05 -1.1487E+03   1.1767E+05  0.000E+00  0.000E+00  0.000E+00  4.17386E+01  1.590E-01  2.000E+01  2.000E+04 -5.744E-02
   1   12   16     1    16    1.1767E+05 -1.8821E+03   1.1955E+05  0.000E+00  0.000E+00  0.000E+00  4.12625E+01  1.602E-01  2.000E+01  2.000E+04 -9.411E-02
   1   12   17     1    17    1.1955E+05 -7.7023E+02   1.2032E+05  0.000E+00  0.000E+00  0.000E+00  4.07863E+01  1.613E-01  2.000E+01  2.000E+04 -3.851E-02
   1   12   18     1    18    1.2032E+05 -2.8727E+02   1.2061E+05  0.000E+00  0.000E+00  0.000E+00  4.03095E+01  1.617E-01  2.000E+01  2.000E+04 -1.436E-02
   1   12   19     1    19    1.2061E+05 -3.6786E+02   1.2098E+05  0.000E+00  0.000E+00  0.000E+00  3.98325E+01  1.620E-01  2.000E+01  2.000E+04 -1.839E-02
   1   13   20     1    20    1.2098E+05  1.6250E+03   1.1935E+05  0.000E+00  0.000E+00  0.000E+00  3.93547E+01  1.615E-01  2.000E+01  2.000E+04  8.125E-02
   1   14   21     1    21    1.1935E+05  1.3075E+03   1.1804E+05  0.000E+00  0.000E+00  0.000E+00  3.88762E+01  1.603E-01  2.000E+01  2.000E+04  6.538E-02
   1   14   22     1    22    1.1804E+05  5.2366E+03   1.1281E+05  0.000E+00  0.000E+00  0.000E+00  3.83963E+01  1.577E-01  2.000E+01  2.000E+04  2.618E-01
[...]
  19  ****** ****** ****** ****** ****** ****** ****** ****** ****** ******
      ****** ****** ****** ****** ****** ****** ****** ****** ****** ******
      ****** ****** ****** ****** ****** ****** ****** ****** ****** ******
  20  ****** ****** ****** ****** ****** ****** ****** ****** ****** ******
      ****** ****** ****** ****** ****** ****** ****** ****** ****** ******
      ****** ****** ****** ****** ****** ****** ****** ****** ****** ******
  21  ****** ****** ****** ****** ****** ****** ****** ****** ****** ******
      ****** ****** ****** ****** ****** ****** ****** ****** ****** ******
      ****** ****** ****** ****** ****** ****** ****** ****** ****** ******
  22  ****** ****** ****** ****** ****** ****** ****** ****** ****** ******
      ****** ****** ****** ****** ****** ****** ****** ****** ****** ******
      ****** ****** ****** ****** ****** ****** ****** ****** ****** ******
  23  ****** ****** ****** ****** ****** ****** ****** ****** ****** ******
      ****** ****** ****** ****** ****** ****** ****** ****** ****** ******
      ****** ****** ****** ****** ****** ****** ****** ****** ****** ******
  24  ****** ****** ****** ****** ****** ****** ****** ****** ****** ******
      ****** ****** ****** ****** ****** ****** ****** ****** ****** ******
      ****** ****** ****** ****** ****** ****** ****** ****** ****** ******
  25  ****** ****** ****** ****** ****** ****** ****** ****** ****** ******
      ****** ****** ****** ****** ****** ****** ****** ****** ****** ******
      ****** ****** ****** ****** ****** ****** ****** ****** ****** ******

 HEAD WILL BE SAVED ON UNIT   51 AT END OF TIME STEP    1, STRESS PERIOD   11
1
  VOLUMETRIC BUDGET FOR ENTIRE MODEL AT END OF TIME STEP    1, STRESS PERIOD  11
  ------------------------------------------------------------------------------

     CUMULATIVE VOLUMES      L**3       RATES FOR THIS TIME STEP      L**3/T
     ------------------                 ------------------------

           IN:                                      IN:
           ---                                      ---
             STORAGE =    37210031.0085               STORAGE =       18047.6405
       CONSTANT HEAD =    31080242.5034         CONSTANT HEAD =       37729.7305
               WELLS =           0.0000                 WELLS =           0.0000
            RECHARGE =    23901600.0000              RECHARGE =           0.0000
      STREAM LEAKAGE =    11407555.8806        STREAM LEAKAGE =       14948.7455

            TOTAL IN =   103599429.3925              TOTAL IN =       70726.1165

          OUT:                                     OUT:
          ----                                     ----
             STORAGE =     2275364.5572               STORAGE =           0.0000
       CONSTANT HEAD =           0.0000         CONSTANT HEAD =           0.0000
               WELLS =    40237851.8348                 WELLS =       40077.5417
            RECHARGE =           0.0000              RECHARGE =           0.0000
      STREAM LEAKAGE =    61086215.0644        STREAM LEAKAGE =       30648.5798

           TOTAL OUT =   103599431.4565             TOTAL OUT =       70726.1215

            IN - OUT =          -2.0640              IN - OUT =      -4.9618E-03

 PERCENT DISCREPANCY =          -0.00     PERCENT DISCREPANCY =          -0.00






         TIME SUMMARY AT END OF TIME STEP    1 IN STRESS PERIOD   11
                    SECONDS     MINUTES      HOURS       DAYS        YEARS
                    -----------------------------------------------------------
   TIME STEP LENGTH 7.86240E+06 1.31040E+05  2184.0      91.000     0.24914    
 STRESS PERIOD TIME 7.86240E+06 1.31040E+05  2184.0      91.000     0.24914    
         TOTAL TIME 8.67456E+07 1.44576E+06  24096.      1004.0      2.7488    
1
1
                            STRESS PERIOD NO.   12, LENGTH =   91.00000    
                            -----------------------------------------------

                              NUMBER OF TIME STEPS =     1

                               MULTIPLIER FOR DELT =     1.500

                            INITIAL TIME STEP SIZE =   91.00000    

 WELL NO.  LAYER   ROW   COL   STRESS RATE         
 --------------------------------------------------
      1      1      5     14      -8335.    
      2      1     14     19     -0.1115E+05
      3      1     20     20      -8343.    
      4      1      5     29     -0.1225E+05

      4 WELLS

                 RECHARGE =  1.000000E-03

 REUSING STREAM SEGMENT DATA FROM LAST STRESS PERIOD
 
 SOLVING FOR HEAD 


     7 CALLS TO PCG ROUTINE FOR TIME STEP   1 IN STRESS PERIOD   12
    24 TOTAL ITERATIONS

 OUTPUT CONTROL FOR STRESS PERIOD   12   TIME STEP    1
    SAVE BUDGET
    SAVE HEAD FOR ALL LAYERS
    PRINT HEAD FOR ALL LAYERS
 UBDSV2 SAVING "STREAMFLOW OUT  " ON UNIT  50 AT TIME STEP  1, STRESS PERIOD  12



 STREAM LISTING     PERIOD     12   STEP        1

 LAYER ROW COL. STREAM  RCH.  FLOW INTO     FLOW TO   FLOW OUT OF   OVRLND.     DIRECT     STREAM       STREAM     STREAM     STREAM   STREAMBED  STREAMBED
                SEG.NO.  NO.  STRM. RCH.    AQUIFER    STRM. RCH.    RUNOFF     PRECIP       ET          HEAD       DEPTH      WIDTH   CONDCTNC.   GRADIENT

   1   13    1     1     1    1.0000E+05 -1.4512E+03   1.0145E+05  0.000E+00  0.000E+00  0.000E+00  4.84066E+01  1.453E-01  2.000E+01  2.000E+04 -7.256E-02
   1   13    2     1     2    1.0145E+05 -2.3663E+03   1.0382E+05  0.000E+00  0.000E+00  0.000E+00  4.79310E+01  1.469E-01  2.000E+01  2.000E+04 -1.183E-01
   1   14    3     1     3    1.0382E+05 -4.1219E+02   1.0423E+05  0.000E+00  0.000E+00  0.000E+00  4.74549E+01  1.481E-01  2.000E+01  2.000E+04 -2.061E-02
   1   15    4     1     4    1.0423E+05 -3.9205E+02   1.0462E+05  0.000E+00  0.000E+00  0.000E+00  4.69780E+01  1.485E-01  2.000E+01  2.000E+04 -1.960E-02
   1   16    5     1     5    1.0462E+05 -1.5134E+03   1.0614E+05  0.000E+00  0.000E+00  0.000E+00  4.65015E+01  1.493E-01  2.000E+01  2.000E+04 -7.567E-02
   1   16    6     1     6    1.0614E+05 -9.4234E+02   1.0708E+05  0.000E+00  0.000E+00  0.000E+00  4.60253E+01  1.503E-01  2.000E+01  2.000E+04 -4.712E-02
   1   16    7     1     7    1.0708E+05 -9.0997E+02   1.0799E+05  0.000E+00  0.000E+00  0.000E+00  4.55488E+01  1.511E-01  2.000E+01  2.000E+04 -4.550E-02
   1   16    8     1     8    1.0799E+05 -8.8681E+02   1.0887E+05  0.000E+00  0.000E+00  0.000E+00  4.50723E+01  1.519E-01  2.000E+01  2.000E+04 -4.434E-02
   1   16    9     1     9    1.0887E+05 -8.5358E+02   1.0973E+05  0.000E+00  0.000E+00  0.000E+00  4.45958E+01  1.526E-01  2.000E+01  2.000E+04 -4.268E-02
   1   16   10     1    10    1.0973E+05 -8.0501E+02   1.1053E+05  0.000E+00  0.000E+00  0.000E+00  4.41192E+01  1.533E-01  2.000E+01  2.000E+04 -4.025E-02
   1   16   11     1    11    1.1053E+05 -7.4100E+02   1.1127E+05  0.000E+00  0.000E+00  0.000E+00  4.36426E+01  1.539E-01  2.000E+01  2.000E+04 -3.705E-02
   1   16   12     1    12    1.1127E+05 -9.7408E+02   1.1225E+05  0.000E+00  0.000E+00  0.000E+00  4.31660E+01  1.546E-01  2.000E+01  2.000E+04 -4.870E-02
   1   15   13     1    13    1.1225E+05 -7.0119E+02   1.1295E+05  0.000E+00  0.000E+00  0.000E+00  4.26894E+01  1.553E-01  2.000E+01  2.000E+04 -3.506E-02
   1   14   14     1    14    1.1295E+05 -7.0094E+02   1.1365E+05  0.000E+00  0.000E+00  0.000E+00  4.22127E+01  1.559E-01  2.000E+01  2.000E+04 -3.505E-02
   1   13   15     1    15    1.1365E+05 -7.4003E+02   1.1439E+05  0.000E+00  0.000E+00  0.000E+00  4.17360E+01  1.565E-01  2.000E+01  2.000E+04 -3.700E-02
   1   12   16     1    16    1.1439E+05 -1.3501E+03   1.1574E+05  0.000E+00  0.000E+00  0.000E+00  4.12596E+01  1.574E-01  2.000E+01  2.000E+04 -6.750E-02
   1   12   17     1    17    1.1574E+05 -4.8922E+02   1.1623E+05  0.000E+00  0.000E+00  0.000E+00  4.07831E+01  1.581E-01  2.000E+01  2.000E+04 -2.446E-02
   1   12   18     1    18    1.1623E+05 -4.7820E+01   1.1628E+05  0.000E+00  0.000E+00  0.000E+00  4.03061E+01  1.583E-01  2.000E+01  2.000E+04 -2.391E-03
   1   12   19     1    19    1.1628E+05 -9.3587E+01   1.1637E+05  0.000E+00  0.000E+00  0.000E+00  3.98288E+01  1.584E-01  2.000E+01  2.000E+04 -4.679E-03
   1   13   20     1    20    1.1637E+05  1.7786E+03   1.1459E+05  0.000E+00  0.000E+00  0.000E+00  3.93509E+01  1.577E-01  2.000E+01  2.000E+04  8.893E-02
   1   14   21     1    21    1.1459E+05  1.4797E+03   1.1311E+05  0.000E+00  0.000E+00  0.000E+00  3.88723E+01  1.564E-01  2.000E+01  2.000E+04  7.399E-02
   1   14   22     1    22    1.1311E+05  5.2498E+03   1.0786E+05  0.000E+00  0.000E+00  0.000E+00  3.83922E+01  1.536E-01  2.000E+01  2.000E+04  2.625E-01
   1    9   30     2     1    5.0000E+04  1.3965E+03   4.8603E+04  0.000E+00  0.000E+00  0.000E+00  4.02399E+01  1.149E-01  2.000E+01  2.000E+04  6.983E-02
   1    9   29     2     2    4.8603E+04  1.0189E+03   4.7585E+04  0.000E+00  0.000E+00  0.000E+00  3.99882E+01  1.132E-01  2.000E+01  2.000E+04  5.095E-02
   1    9   28     2     3    4.7585E+04  5.8281E+02   4.7002E+04  0.000E+00  0.000E+00  0.000E+00  3.97371E+01  1.121E-01  2.000E+01  2.000E+04  2.914E-02
   1    9   27     2     4    4.7002E+04 -2.9412E+02   4.7296E+04  0.000E+00  0.000E+00  0.000E+00  3.94869E+01  1.119E-01  2.000E+01  2.000E+04 -1.471E-02
   1   10   26     2     5    4.7296E+04 -6.5452E+02   4.7950E+04  0.000E+00  0.000E+00  0.000E+00  3.92375E+01  1.125E-01  2.000E+01  2.000E+04 -3.273E-02
   1   11   25     2     6    4.7950E+04 -8.1829E+02   4.8769E+04  0.000E+00  0.000E+00  0.000E+00  3.89886E+01  1.136E-01  2.000E+01  2.000E+04 -4.091E-02
   1   12   24     2     7    4.8769E+04 -1.0319E+03   4.9801E+04  0.000E+00  0.000E+00  0.000E+00  3.87399E+01  1.149E-01  2.000E+01  2.000E+04 -5.159E-02
   1   13   23     2     8    4.9801E+04 -1.9094E+02   4.9991E+04  0.000E+00  0.000E+00  0.000E+00  3.84907E+01  1.157E-01  2.000E+01  2.000E+04 -9.547E-03
   1   14   22     2     9    4.9991E+04  2.1921E+03   4.7799E+04  0.000E+00  0.000E+00  0.000E+00  3.82393E+01  1.143E-01  2.000E+01  2.000E+04  1.096E-01
   1   14   22     3     1    1.5566E+05 -8.3027E+03   1.6396E+05  0.000E+00  0.000E+00  0.000E+00  3.77146E+01  1.590E-01  2.000E+01  2.000E+04 -4.151E-01
   1   15   23     3     2    1.6396E+05 -2.2147E+02   1.6419E+05  0.000E+00  0.000E+00  0.000E+00  3.68282E+01  1.616E-01  2.000E+01  2.000E+04 -1.107E-02
   1   15   24     3     3    1.6419E+05 -1.9365E+02   1.6438E+05  0.000E+00  0.000E+00  0.000E+00  3.59395E+01  1.617E-01  2.000E+01  2.000E+04 -9.682E-03
   1   15   25     3     4    1.6438E+05 -2.1639E+02   1.6460E+05  0.000E+00  0.000E+00  0.000E+00  3.50507E+01  1.618E-01  2.000E+01  2.000E+04 -1.082E-02
   1   15   26     3     5    1.6460E+05 -2.9915E+02   1.6490E+05  0.000E+00  0.000E+00  0.000E+00  3.41620E+01  1.620E-01  2.000E+01  2.000E+04 -1.496E-02
   1   16   27     3     6    1.6490E+05 -3.0303E+02   1.6520E+05  0.000E+00  0.000E+00  0.000E+00  3.32732E+01  1.621E-01  2.000E+01  2.000E+04 -1.515E-02
   1   17   28     3     7    1.6520E+05 -1.2937E+03   1.6649E+05  0.000E+00  0.000E+00  0.000E+00  3.23848E+01  1.626E-01  2.000E+01  2.000E+04 -6.468E-02
   1   18   29     3     8    1.6649E+05 -2.3175E+03   1.6881E+05  0.000E+00  0.000E+00  0.000E+00  3.14970E+01  1.637E-01  2.000E+01  2.000E+04 -1.159E-01
   1   18   30     3     9    1.6881E+05 -2.8316E+03   1.7164E+05  0.000E+00  0.000E+00  0.000E+00  3.06096E+01  1.652E-01  2.000E+01  2.000E+04 -1.416E-01



1
              HEAD IN LAYER   1 AT END OF TIME STEP   1 IN STRESS PERIOD   12
  ---------------------------------------------------------------------------

          1      2      3      4      5      6      7      8      9     10
         11     12     13     14     15     16     17     18     19     20
         21     22     23     24     25     26     27     28     29     30
 .........................................................................
   1  ****** ****** ****** ****** ****** ****** ****** ****** ****** ******
      ****** ****** ****** ****** ****** ****** ****** ****** ****** ******
      ****** ****** ****** ****** ****** ****** ****** ****** ****** ******
   2  ****** ****** ****** ****** ****** ****** ****** ****** ****** ******
      ****** ****** ****** ****** ****** ****** ****** ****** ****** ******
      ****** ****** ****** ****** ****** ****** ****** ****** ****** ******
   3  ****** ****** ****** ****** ****** ****** ****** ****** ****** ******
      ****** ****** ****** ****** ****** ****** ****** ****** ****** ******
      ****** ****** ****** ****** ****** ****** ****** ****** ****** ******
   4  ****** ****** ****** ****** ****** ****** ****** ****** ****** ******
      ****** ****** ****** ****** ****** ****** ****** ****** ****** ******
      ****** ****** ****** ****** ****** ****** ****** ****** ****** ******
   5  ****** ****** ****** ****** ****** ****** ****** ****** ****** ******
      ****** ****** ****** ****** ****** ****** ****** ****** ****** ******
      ****** ****** ****** ****** ****** ****** ****** ****** ****** ******
   6  ****** ****** ****** ****** ****** ****** ****** ****** ****** ******
      ****** ****** ****** ****** ****** ****** ****** ****** ****** ******
      ****** ****** ****** ****** ****** ****** ****** ****** ****** ******
   7  ****** ****** ****** ****** ****** ****** ****** ****** ****** ******
      ****** ****** ****** ****** ****** ****** ****** ****** ****** ******
      ****** ****** ****** ****** ****** ****** ****** ****** ****** ******
   8  ****** ****** ****** ****** ****** ****** ****** ****** ****** ******
      ****** ****** ****** ****** ****** ****** ****** ****** ****** ******
      ****** ****** ****** ****** ****** ****** ****** ****** ****** ******
   9  ****** ****** ****** ****** ****** ****** ****** ****** ****** ******
      ****** ****** ****** ****** ****** ****** ****** ****** ****** ******
      ****** ****** ****** ****** ****** ****** ****** ****** ****** ******
  10  ****** ****** ****** ****** ****** ****** ****** ****** ****** ******
      ****** ****** ****** ****** ****** ****** ****** ****** ****** ******
      ****** ****** ****** ****** ****** ****** ****** ****** ****** ******
  11  ****** ****** ****** ****** ****** ****** ****** ****** ****** ******
      ****** ****** ****** ****** ****** ****** ****** ****** ****** ******
      ****** ****** ****** ****** ****** ****** ****** ****** ****** ******
  12  ****** ****** ****** ****** ****** ****** ****** ****** ****** ******
      ****** ****** ****** ****** ****** ****** ****** ****** ****** ******
      ****** ****** ****** ****** ****** ****** ****** ****** ****** ******
  13  ****** ****** ****** ****** ****** ****** ****** ****** ****** ******
      ****** ****** ****** ****** ****** ****** ****** ****** ****** ******
      ****** ****** ****** ****** ****** ****** ****** ****** ****** ******
  14  ****** ****** ****** ****** ****** ****** ****** ****** ****** ******
      ****** ****** ****** ****** ****** ****** ****** ****** ****** ******
      ****** ****** ****** ****** ****** ****** ****** ****** ****** ******
  15  ****** ****** ****** ****** ****** ****** ****** ****** ****** ******
      ****** ****** ****** ****** ****** ****** ****** ****** ****** ******
      ****** ****** ****** ****** ****** ****** ****** ****** ****** ******
  16  ****** ****** ****** ****** ****** ****** ****** ****** ****** ******
      ****** ****** ****** ****** ****** ****** ****** ****** ****** ******
      ****** ****** ****** ****** ****** ****** ****** ****** ****** ******
  17  ****** ****** ****** ****** ****** ****** ****** ****** ****** ******
      ****** ****** ****** ****** ****** ****** ****** ****** ****** ******
      ****** ****** ****** ****** ****** ****** ****** ****** ****** ******
  18  ****** ****** ****** ****** ****** ****** ****** ****** ****** ******
      ****** ****** ****** ****** ****** ****** ****** ****** ****** ******
      ****** ****** ****** ****** ****** ****** ****** ****** ****** ******
  19  ****** ****** ****** ****** ****** ****** ****** ****** ****** ******
      ****** ****** ****** ****** ****** ****** ****** ****** ****** ******
      ****** ****** ****** ****** ****** ****** ****** ****** ****** ******
  20  ****** ****** ****** ****** ****** ****** ****** ****** ****** ******
      ****** ****** ****** ****** ****** ****** ****** ****** ****** ******
      ****** ****** ****** ****** ****** ****** ****** ****** ****** ******
  21  ****** ****** ****** ****** ****** ****** ****** ****** ****** ******
      ****** ****** ****** ****** ****** ****** ****** ****** ****** ******
      ****** ****** ****** ****** ****** ****** ****** ****** ****** ******
  22  ****** ****** ****** ****** ****** ****** ****** ****** ****** ******
      ****** ****** ****** ****** ****** ****** ****** ****** ****** ******
      ****** ****** ****** ****** ****** ****** ****** ****** ****** ******
  23  ****** ****** ****** ****** ****** ****** ****** ****** ****** ******
      ****** ****** ****** ****** ****** ****** ****** ****** ****** ******
      ****** ****** ****** ****** ****** ****** ****** ****** ****** ******
  24  ****** ****** ****** ****** ****** ****** ****** ****** ****** ******
      ****** ****** ****** ****** ****** ****** ****** ****** ****** ******
      ****** ****** ****** ****** ****** ****** ****** ****** ****** ******
  25  ****** ****** ****** ****** ****** ****** ****** ****** ****** ******
      ****** ****** ****** ****** ****** ****** ****** ****** ****** ******
      ****** ****** ****** ****** ****** ****** ****** ****** ****** ******

 HEAD WILL BE SAVED ON UNIT   51 AT END OF TIME STEP    1, STRESS PERIOD   12
1
  VOLUMETRIC BUDGET FOR ENTIRE MODEL AT END OF TIME STEP    1, STRESS PERIOD  12
  ------------------------------------------------------------------------------

     CUMULATIVE VOLUMES      L**3       RATES FOR THIS TIME STEP      L**3/T
     ------------------                 ------------------------

           IN:                                      IN:
           ---                                      ---
             STORAGE =    37212177.8723               STORAGE =          23.5919
       CONSTANT HEAD =    34451115.6657         CONSTANT HEAD =       37042.5622
               WELLS =           0.0000                 WELLS =           0.0000
            RECHARGE =    26413200.0000              RECHARGE =       27600.0000
      STREAM LEAKAGE =    12654127.4933        STREAM LEAKAGE =       13698.5892

            TOTAL IN =   110730621.0313              TOTAL IN =       78364.7433

          OUT:                                     OUT:
          ----                                     ----
             STORAGE =     2543592.9784               STORAGE =        2947.5651
       CONSTANT HEAD =           0.0000         CONSTANT HEAD =           0.0000
               WELLS =    43884908.1266                 WELLS =       40077.5417
            RECHARGE =           0.0000              RECHARGE =           0.0000
      STREAM LEAKAGE =    64302121.9084        STREAM LEAKAGE =       35339.6356

           TOTAL OUT =   110730623.0134             TOTAL OUT =       78364.7424

            IN - OUT =          -1.9822              IN - OUT =       8.9906E-04

 PERCENT DISCREPANCY =          -0.00     PERCENT DISCREPANCY =           0.00






         TIME SUMMARY AT END OF TIME STEP    1 IN STRESS PERIOD   12
                    SECONDS     MINUTES      HOURS       DAYS        YEARS
                    -----------------------------------------------------------
   TIME STEP LENGTH 7.86240E+06 1.31040E+05  2184.0      91.000     0.24914    
 STRESS PERIOD TIME 7.86240E+06 1.31040E+05  2184.0      91.000     0.24914    
         TOTAL TIME 9.46080E+07 1.57680E+06  26280.      1095.0      2.9979    
1

 Run end date and time (yyyy/mm/dd hh:mm:ss): 2019/03/11 18:47:22
 Elapsed run time:  0.079 Seconds

