                                  MODFLOW-2005     
      U.S. GEOLOGICAL SURVEY MODULAR FINITE-DIFFERENCE GROUND-WATER FLOW MODEL
                            VERSION 1.11.00 8/8/2013

 LIST FILE: supply2.lst
                         UNIT   10

 OPENING ..\data\supply.dis
 FILE TYPE:DIS   UNIT   11   STATUS:OLD    
 FORMAT:FORMATTED              ACCESS:SEQUENTIAL          

 OPENING ..\data\supply.ba6
 FILE TYPE:BAS6   UNIT   12   STATUS:OLD    
 FORMAT:FORMATTED              ACCESS:SEQUENTIAL          

 OPENING ..\data\supply.bc6
 FILE TYPE:BCF6   UNIT   13   STATUS:OLD    
 FORMAT:FORMATTED              ACCESS:SEQUENTIAL          

 OPENING ..\data\supply.rch
 FILE TYPE:RCH   UNIT   15   STATUS:OLD    
 FORMAT:FORMATTED              ACCESS:SEQUENTIAL          

 OPENING ..\data\supply2.sfr
 FILE TYPE:SFR   UNIT   16   STATUS:OLD    
 FORMAT:FORMATTED              ACCESS:SEQUENTIAL          

 OPENING ..\data\supply.oc
 FILE TYPE:OC   UNIT   17   STATUS:OLD    
 FORMAT:FORMATTED              ACCESS:SEQUENTIAL          

 OPENING ..\data\supply.pcg
 FILE TYPE:PCG   UNIT   18   STATUS:OLD    
 FORMAT:FORMATTED              ACCESS:SEQUENTIAL          

 OPENING supply2.wel
 FILE TYPE:WEL   UNIT   19   STATUS:OLD    
 FORMAT:FORMATTED              ACCESS:SEQUENTIAL          

 OPENING supply2sf.bin
 FILE TYPE:DATA(BINARY)   UNIT   50   STATUS:UNKNOWN
 FORMAT:BINARY                 ACCESS:SEQUENTIAL          

 OPENING supply2hd.bin
 FILE TYPE:DATA(BINARY)   UNIT   51   STATUS:UNKNOWN
 FORMAT:BINARY                 ACCESS:SEQUENTIAL          

 BAS -- BASIC PACKAGE, VERSION 7, 5/2/2005 INPUT READ FROM UNIT   12
 
 MODFLOW was compiled using uniform precision
 Precision of REAL and DOUBLE PRECISION variables:          15

 DISCRETIZATION INPUT DATA READ FROM UNIT   11
    1 LAYERS        25 ROWS        30 COLUMNS
   12 STRESS PERIOD(S) IN SIMULATION
 MODEL TIME UNIT IS DAYS
 MODEL LENGTH UNIT IS UNDEFINED
  Confining bed flag for each layer:
   0

                     DELR =   200.000    

                     DELC =   200.000    

 TOP ELEVATION OF LAYER 1 =  100.0000    

   MODEL LAYER BOTTOM EL. =   0.00000     FOR LAYER   1


 STRESS PERIOD     LENGTH       TIME STEPS     MULTIPLIER FOR DELT    SS FLAG
 ----------------------------------------------------------------------------
        1         92.00000          1                    1.500         TR
        2         91.00000          1                    1.500         TR
        3         91.00000          1                    1.500         TR
        4         91.00000          1                    1.500         TR
        5         92.00000          1                    1.500         TR
        6         91.00000          1                    1.500         TR
        7         91.00000          1                    1.500         TR
        8         91.00000          1                    1.500         TR
        9         92.00000          1                    1.500         TR
       10         91.00000          1                    1.500         TR
       11         91.00000          1                    1.500         TR
       12         91.00000          1                    1.500         TR

 TRANSIENT SIMULATION



 
 #MODOFC transient water supply sample problem                                   
 #                                                                               
 THE FREE FORMAT OPTION HAS BEEN SELECTED



                     BOUNDARY ARRAY FOR LAYER   1
 READING ON UNIT   12 WITH FORMAT: (20I4)              

 AQUIFER HEAD WILL BE SET TO   0.0000     AT ALL NO-FLOW NODES (IBOUND=0).



                       INITIAL HEAD FOR LAYER   1
 READING ON UNIT   12 WITH FORMAT: (10F13.0)           

 OUTPUT CONTROL IS SPECIFIED ONLY AT TIME STEPS FOR WHICH OUTPUT IS DESIRED
 COMPACT CELL-BY-CELL BUDGET FILES WILL BE WRITTEN
 HEAD PRINT FORMAT CODE IS  18    DRAWDOWN PRINT FORMAT CODE IS   0
 HEADS WILL BE SAVED ON UNIT   51    DRAWDOWNS WILL BE SAVED ON UNIT    0

 BCF -- BLOCK-CENTERED FLOW PACKAGE, VERSION 7, 5/2/2005
         INPUT READ FROM UNIT 13
 TRANSIENT SIMULATION
 HEAD AT CELLS THAT CONVERT TO DRY=   0.0000    
 WETTING CAPABILITY IS NOT ACTIVE
      LAYER  LAYER-TYPE CODE     INTERBLOCK T
      --------------------------------------------
         1            0          0 -- HARMONIC    

 COLUMN TO ROW ANISOTROPY =  1.000000    

     PRIMARY STORAGE COEF =  5.000000E-02 FOR LAYER   1

     TRANSMIS. ALONG ROWS =   5000.00     FOR LAYER   1

 WEL -- WELL PACKAGE, VERSION 7, 5/2/2005 INPUT READ FROM UNIT   19
 # Well package input file written by MMProc
 No named parameters
 MAXIMUM OF      7 ACTIVE WELLS AT ONE TIME


     0 Well parameters

 RCH -- RECHARGE PACKAGE, VERSION 7, 5/2/2005 INPUT READ FROM UNIT   15
 No named parameters
 OPTION 1 -- RECHARGE TO TOP LAYER


     0 Recharge parameters

 SFR7 -- STREAMFLOW ROUTING PACKAGE, VERSION 1.0.7, 2013-01-15
         INPUT READ FROM UNIT  16
 #  Supply2 test problem for GWM-VI
 #  The eighth entry in the first data line is ISTCB2 -
 #    Setting this to a negative number indicates that
 #    streamflows out of the reach will be saved to a
 #    binary file.  The absolute value of ISTCB2 is the
 #    unit to which unformatted flows will be written.
 #
 No named parameters
 Segment information will not be 
 read by reach
 No named parameters
 No specifed inflow files


 NUMBER OF STREAM REACHES IS   40

 NUMBER OF STREAM SEGMENTS IS    3

 NUMBER OF STREAM PARAMETERS IS    0

 NUMBER OF STREAM SEGMENTS DEFINED USING PARAMETERS IS              0

 MAXIMUM ERROR FOR STREAM LEAKAGE RATES IS  1.00E-04

 CONSTANT FOR MANNINGS EQUATION IS  1.2839E+05





   STREAM NETWORK DESCRIPTION: 

   LAYER    ROW    COL   SEGMENT   REACH     LENGTH
                          NUMBER   NUMBER    IN CELL        
   --------------------------------------------------
      1     13      1       1        1    2.0000E+02
      1     13      2       1        2    2.0000E+02
      1     14      3       1        3    2.0000E+02
      1     15      4       1        4    2.0000E+02
      1     16      5       1        5    2.0000E+02
      1     16      6       1        6    2.0000E+02
      1     16      7       1        7    2.0000E+02
      1     16      8       1        8    2.0000E+02
      1     16      9       1        9    2.0000E+02
      1     16     10       1       10    2.0000E+02
      1     16     11       1       11    2.0000E+02
      1     16     12       1       12    2.0000E+02
      1     15     13       1       13    2.0000E+02
      1     14     14       1       14    2.0000E+02
      1     13     15       1       15    2.0000E+02
      1     12     16       1       16    2.0000E+02
      1     12     17       1       17    2.0000E+02
      1     12     18       1       18    2.0000E+02
      1     12     19       1       19    2.0000E+02
      1     13     20       1       20    2.0000E+02
      1     14     21       1       21    2.0000E+02
      1     14     22       1       22    2.0000E+02
      1      9     30       2        1    2.0000E+02
      1      9     29       2        2    2.0000E+02
      1      9     28       2        3    2.0000E+02
      1      9     27       2        4    2.0000E+02
      1     10     26       2        5    2.0000E+02
      1     11     25       2        6    2.0000E+02
      1     12     24       2        7    2.0000E+02
      1     13     23       2        8    2.0000E+02
      1     14     22       2        9    2.0000E+02
      1     14     22       3        1    2.0000E+02
      1     15     23       3        2    2.0000E+02
      1     15     24       3        3    2.0000E+02
      1     15     25       3        4    2.0000E+02
      1     15     26       3        5    2.0000E+02
      1     16     27       3        6    2.0000E+02
      1     17     28       3        7    2.0000E+02
      1     18     29       3        8    2.0000E+02
      1     18     30       3        9    2.0000E+02




 PCG -- CONJUGATE-GRADIENT SOLUTION PACKAGE, VERSION 7, 5/2/2005
 MAXIMUM OF    500 CALLS OF SOLUTION ROUTINE
 MAXIMUM OF      5 INTERNAL ITERATIONS PER CALL TO SOLUTION ROUTINE
 MATRIX PRECONDITIONING TYPE :    1



                                    SOLUTION BY THE CONJUGATE-GRADIENT METHOD
                                   -------------------------------------------
                    MAXIMUM NUMBER OF CALLS TO PCG ROUTINE =      500
                        MAXIMUM ITERATIONS PER CALL TO PCG =        5
                               MATRIX PRECONDITIONING TYPE =        1
        RELAXATION FACTOR (ONLY USED WITH PRECOND. TYPE 1) =    0.10000E+01
 PARAMETER OF POLYNOMIAL PRECOND. = 2 (2) OR IS CALCULATED :        0
                         HEAD CHANGE CRITERION FOR CLOSURE =    0.10000E-05
                     RESIDUAL CHANGE CRITERION FOR CLOSURE =    0.10000E+01
            PCG HEAD AND RESIDUAL CHANGE PRINTOUT INTERVAL =        1
     PRINTING FROM SOLVER IS LIMITED(1) OR SUPPRESSED (>1) =        1
                            STEADY-STATE DAMPING PARAMETER =    0.10000E+01
                               TRANSIENT DAMPING PARAMETER =    0.10000E+01
1
                            STRESS PERIOD NO.    1, LENGTH =   92.00000    
                            -----------------------------------------------

                              NUMBER OF TIME STEPS =     1

                               MULTIPLIER FOR DELT =     1.500

                            INITIAL TIME STEP SIZE =   92.00000    

 WELL NO.  LAYER   ROW   COL   STRESS RATE         
 --------------------------------------------------
      1      1     10     10      -7320.    
      2      1      9     14     -0.5000E+05

      2 WELLS

                 RECHARGE =  5.000000E-04



 CLASSIFICATION & COUNT OF STREAM SEGMENTS BASED ON SOURCE OF INFLOW:

                HEADWATER     DIVERSION     RECEIVES TRIBUTARY FLOW
                ---------     ---------     -----------------------
                     2              0               1



                    INPUT DATA FOR EACH STREAM SEGMENT
 ---------------------------------------------------------------------------------------------

 SEGMENT    SEG.     INFLOW   OVERLAND   STREAM    STREAM   ICALC  OUTFLOW  DIVERSION PRIORITY
    NO.    LENGTH     RATE     RUNOFF      ET       PPT.    METH.  TO SEG.  FROM SEG.    NO.

      1  4.400E+03 1.000E+05 0.000E+00 0.000E+00 0.000E+00    1        3        0        0
      2  1.800E+03 5.000E+04 0.000E+00 0.000E+00 0.000E+00    1        3        0        0
      3  1.800E+03 0.000E+00 0.000E+00 0.000E+00 0.000E+00    1        0        0        0


         STREAMBED PROPERTIES AND STREAM DIMENSIONS

 SEGMENT     BED HYD. COND.      BED THICKNESS     ELEV.-TOP OF BED     WIDTH OF STREAM     DEPTH OF STREAM    STREAM ROUGHNESS
    No.     UPPER     LOWER     UPPER     LOWER     UPPER     LOWER     UPPER     LOWER     UPPER     LOWER   CHANNEL      BANK

     1  5.000E+00 5.000E+00 1.000E+00 1.000E+00 4.850E+01 3.800E+01 2.000E+01 2.000E+01                     5.000E-02
     2  5.000E+00 5.000E+00 1.000E+00 1.000E+00 4.025E+01 3.800E+01 2.000E+01 2.000E+01                     5.000E-02
     3  5.000E+00 5.000E+00 1.000E+00 1.000E+00 3.800E+01 3.000E+01 2.000E+01 2.000E+01                     5.000E-02



 
 SOLVING FOR HEAD 


     8 CALLS TO PCG ROUTINE FOR TIME STEP   1 IN STRESS PERIOD    1
    32 TOTAL ITERATIONS

 OUTPUT CONTROL FOR STRESS PERIOD    1   TIME STEP    1
    SAVE BUDGET
    SAVE HEAD FOR ALL LAYERS
    PRINT HEAD FOR ALL LAYERS
 UBDSV2 SAVING "STREAMFLOW OUT  " ON UNIT  50 AT TIME STEP  1, STRESS PERIOD   1



 STREAM LISTING     PERIOD      1   STEP        1

 LAYER ROW COL. STREAM  RCH.  FLOW INTO     FLOW TO   FLOW OUT OF   OVRLND.     DIRECT     STREAM       STREAM     STREAM     STREAM   STREAMBED  STREAMBED
                SEG.NO.  NO.  STRM. RCH.    AQUIFER    STRM. RCH.    RUNOFF     PRECIP       ET          HEAD       DEPTH      WIDTH   CONDCTNC.   GRADIENT

   1   13    1     1     1    1.0000E+05 -3.1109E+04   1.3111E+05  0.000E+00  0.000E+00  0.000E+00  4.84191E+01  1.578E-01  2.000E+01  2.000E+04 -1.555E+00
   1   13    2     1     2    1.3111E+05 -4.1316E+04   1.7243E+05  0.000E+00  0.000E+00  0.000E+00  4.79699E+01  1.858E-01  2.000E+01  2.000E+04 -2.066E+00
   1   14    3     1     3    1.7243E+05 -3.6947E+04   2.0937E+05  0.000E+00  0.000E+00  0.000E+00  4.75200E+01  2.132E-01  2.000E+01  2.000E+04 -1.847E+00
   1   15    4     1     4    2.0937E+05 -3.6097E+04   2.4547E+05  0.000E+00  0.000E+00  0.000E+00  4.70664E+01  2.368E-01  2.000E+01  2.000E+04 -1.805E+00
   1   16    5     1     5    2.4547E+05 -3.7272E+04   2.8274E+05  0.000E+00  0.000E+00  0.000E+00  4.66113E+01  2.591E-01  2.000E+01  2.000E+04 -1.864E+00
   1   16    6     1     6    2.8274E+05 -3.2433E+04   3.1518E+05  0.000E+00  0.000E+00  0.000E+00  4.61541E+01  2.791E-01  2.000E+01  2.000E+04 -1.622E+00
   1   16    7     1     7    3.1518E+05 -3.2121E+04   3.4730E+05  0.000E+00  0.000E+00  0.000E+00  4.56945E+01  2.968E-01  2.000E+01  2.000E+04 -1.606E+00
   1   16    8     1     8    3.4730E+05 -3.2212E+04   3.7951E+05  0.000E+00  0.000E+00  0.000E+00  4.52342E+01  3.137E-01  2.000E+01  2.000E+04 -1.611E+00
   1   16    9     1     9    3.7951E+05 -3.2207E+04   4.1172E+05  0.000E+00  0.000E+00  0.000E+00  4.47733E+01  3.301E-01  2.000E+01  2.000E+04 -1.610E+00
   1   16   10     1    10    4.1172E+05 -3.2180E+04   4.4390E+05  0.000E+00  0.000E+00  0.000E+00  4.43119E+01  3.460E-01  2.000E+01  2.000E+04 -1.609E+00
   1   16   11     1    11    4.4390E+05 -3.2846E+04   4.7674E+05  0.000E+00  0.000E+00  0.000E+00  4.38502E+01  3.615E-01  2.000E+01  2.000E+04 -1.642E+00
   1   16   12     1    12    4.7674E+05 -3.8988E+04   5.1573E+05  0.000E+00  0.000E+00  0.000E+00  4.33896E+01  3.782E-01  2.000E+01  2.000E+04 -1.949E+00
   1   15   13     1    13    5.1573E+05 -3.7435E+04   5.5317E+05  0.000E+00  0.000E+00  0.000E+00  4.29295E+01  3.954E-01  2.000E+01  2.000E+04 -1.872E+00
   1   14   14     1    14    5.5317E+05 -3.7214E+04   5.9038E+05  0.000E+00  0.000E+00  0.000E+00  4.24686E+01  4.118E-01  2.000E+01  2.000E+04 -1.861E+00
   1   13   15     1    15    5.9038E+05 -3.8160E+04   6.2854E+05  0.000E+00  0.000E+00  0.000E+00  4.20074E+01  4.278E-01  2.000E+01  2.000E+04 -1.908E+00
   1   12   16     1    16    6.2854E+05 -4.2716E+04   6.7126E+05  0.000E+00  0.000E+00  0.000E+00  4.15469E+01  4.447E-01  2.000E+01  2.000E+04 -2.136E+00
   1   12   17     1    17    6.7126E+05 -3.4834E+04   7.0609E+05  0.000E+00  0.000E+00  0.000E+00  4.10854E+01  4.604E-01  2.000E+01  2.000E+04 -1.742E+00
   1   12   18     1    18    7.0609E+05 -3.4071E+04   7.4016E+05  0.000E+00  0.000E+00  0.000E+00  4.06218E+01  4.741E-01  2.000E+01  2.000E+04 -1.704E+00
   1   12   19     1    19    7.4016E+05 -3.8920E+04   7.7908E+05  0.000E+00  0.000E+00  0.000E+00  4.01587E+01  4.883E-01  2.000E+01  2.000E+04 -1.946E+00
   1   13   20     1    20    7.7908E+05 -3.0017E+04   8.0910E+05  0.000E+00  0.000E+00  0.000E+00  3.96947E+01  5.015E-01  2.000E+01  2.000E+04 -1.501E+00
   1   14   21     1    21    8.0910E+05 -2.2790E+04   8.3189E+05  0.000E+00  0.000E+00  0.000E+00  3.92273E+01  5.114E-01  2.000E+01  2.000E+04 -1.140E+00
   1   14   22     1    22    8.3189E+05 -2.9711E+03   8.3486E+05  0.000E+00  0.000E+00  0.000E+00  3.87548E+01  5.162E-01  2.000E+01  2.000E+04 -1.486E-01
   1    9   30     2     1    5.0000E+04 -2.9601E+04   7.9601E+04  0.000E+00  0.000E+00  0.000E+00  4.02604E+01  1.354E-01  2.000E+01  2.000E+04 -1.480E+00
   1    9   29     2     2    7.9601E+04 -3.2027E+04   1.1163E+05  0.000E+00  0.000E+00  0.000E+00  4.00460E+01  1.710E-01  2.000E+01  2.000E+04 -1.601E+00
   1    9   28     2     3    1.1163E+05 -3.6310E+04   1.4794E+05  0.000E+00  0.000E+00  0.000E+00  3.98304E+01  2.054E-01  2.000E+01  2.000E+04 -1.816E+00
   1    9   27     2     4    1.4794E+05 -5.0820E+04   1.9876E+05  0.000E+00  0.000E+00  0.000E+00  3.96193E+01  2.443E-01  2.000E+01  2.000E+04 -2.541E+00
   1   10   26     2     5    1.9876E+05 -3.7177E+04   2.3593E+05  0.000E+00  0.000E+00  0.000E+00  3.94048E+01  2.798E-01  2.000E+01  2.000E+04 -1.859E+00
   1   11   25     2     6    2.3593E+05 -2.8742E+04   2.6468E+05  0.000E+00  0.000E+00  0.000E+00  3.91795E+01  3.045E-01  2.000E+01  2.000E+04 -1.437E+00
   1   12   24     2     7    2.6468E+05 -2.1780E+04   2.8646E+05  0.000E+00  0.000E+00  0.000E+00  3.89476E+01  3.226E-01  2.000E+01  2.000E+04 -1.089E+00
   1   13   23     2     8    2.8646E+05 -1.5806E+04   3.0226E+05  0.000E+00  0.000E+00  0.000E+00  3.87107E+01  3.357E-01  2.000E+01  2.000E+04 -7.903E-01
   1   14   22     2     9    3.0226E+05 -8.6887E+03   3.1095E+05  0.000E+00  0.000E+00  0.000E+00  3.84690E+01  3.440E-01  2.000E+01  2.000E+04 -4.344E-01
   1   14   22     3     1    1.1458E+06 -1.6542E+04   1.1624E+06  0.000E+00  0.000E+00  0.000E+00  3.80763E+01  5.208E-01  2.000E+01  2.000E+04 -8.271E-01
   1   15   23     3     2    1.1624E+06 -2.6700E+04   1.1891E+06  0.000E+00  0.000E+00  0.000E+00  3.71933E+01  5.266E-01  2.000E+01  2.000E+04 -1.335E+00
   1   15   24     3     3    1.1891E+06 -2.2362E+04   1.2114E+06  0.000E+00  0.000E+00  0.000E+00  3.63109E+01  5.332E-01  2.000E+01  2.000E+04 -1.118E+00
   1   15   25     3     4    1.2114E+06 -2.2094E+04   1.2335E+06  0.000E+00  0.000E+00  0.000E+00  3.54280E+01  5.391E-01  2.000E+01  2.000E+04 -1.105E+00
   1   15   26     3     5    1.2335E+06 -2.5525E+04   1.2590E+06  0.000E+00  0.000E+00  0.000E+00  3.45453E+01  5.453E-01  2.000E+01  2.000E+04 -1.276E+00
   1   16   27     3     6    1.2590E+06 -3.3255E+04   1.2923E+06  0.000E+00  0.000E+00  0.000E+00  3.36641E+01  5.530E-01  2.000E+01  2.000E+04 -1.663E+00
   1   17   28     3     7    1.2923E+06 -4.0268E+04   1.3326E+06  0.000E+00  0.000E+00  0.000E+00  3.27847E+01  5.625E-01  2.000E+01  2.000E+04 -2.013E+00
   1   18   29     3     8    1.3326E+06 -5.0722E+04   1.3833E+06  0.000E+00  0.000E+00  0.000E+00  3.19075E+01  5.741E-01  2.000E+01  2.000E+04 -2.536E+00
   1   18   30     3     9    1.3833E+06 -4.6718E+04   1.4300E+06  0.000E+00  0.000E+00  0.000E+00  3.10309E+01  5.864E-01  2.000E+01  2.000E+04 -2.336E+00



1
              HEAD IN LAYER   1 AT END OF TIME STEP   1 IN STRESS PERIOD    1
  ---------------------------------------------------------------------------

          1      2      3      4      5      6      7      8      9     10
         11     12     13     14     15     16     17     18     19     20
         21     22     23     24     25     26     27     28     29     30
 .........................................................................
   1  ****** ****** ****** ****** ****** ****** ****** ****** ****** ******
      ****** ****** ****** ****** ****** ****** ****** ****** ****** ******
      ****** ****** ****** ****** ****** ****** ****** ****** ****** ******
   2  ****** ****** ****** ****** ****** ****** ****** ****** ****** ******
      ****** ****** ****** ****** ****** ****** ****** ****** ****** ******
      ****** ****** ****** ****** ****** ****** ****** ****** ****** ******
   3  ****** ****** ****** ****** ****** ****** ****** ****** ****** ******
      ****** ****** ****** ****** ****** ****** ****** ****** ****** ******
      ****** ****** ****** ****** ****** ****** ****** ****** ****** ******
   4  ****** ****** ****** ****** ****** ****** ****** ****** ****** ******
      ****** ****** ****** ****** ****** ****** ****** ****** ****** ******
      ****** ****** ****** ****** ****** ****** ****** ****** ****** ******
   5  ****** ****** ****** ****** ****** ****** ****** ****** ****** ******
      ****** ****** ****** ****** ****** ****** ****** ****** ****** ******
      ****** ****** ****** ****** ****** ****** ****** ****** ****** ******
   6  ****** ****** ****** ****** ****** ****** ****** ****** ****** ******
      ****** ****** ****** ****** ****** ****** ****** ****** ****** ******
      ****** ****** ****** ****** ****** ****** ****** ****** ****** ******
   7  ****** ****** ****** ****** ****** ****** ****** ****** ****** ******
      ****** ****** ****** ****** ****** ****** ****** ****** ****** ******
      ****** ****** ****** ****** ****** ****** ****** ****** ****** ******
   8  ****** ****** ****** ****** ****** ****** ****** ****** ****** ******
      ****** ****** ****** ****** ****** ****** ****** ****** ****** ******
      ****** ****** ****** ****** ****** ****** ****** ****** ****** ******
   9  ****** ****** ****** ****** ****** ****** ****** ****** ****** ******
      ****** ****** ****** ****** ****** ****** ****** ****** ****** ******
      ****** ****** ****** ****** ****** ****** ****** ****** ****** ******
  10  ****** ****** ****** ****** ****** ****** ****** ****** ****** ******
      ****** ****** ****** ****** ****** ****** ****** ****** ****** ******
      ****** ****** ****** ****** ****** ****** ****** ****** ****** ******
  11  ****** ****** ****** ****** ****** ****** ****** ****** ****** ******
      ****** ****** ****** ****** ****** ****** ****** ****** ****** ******
      ****** ****** ****** ****** ****** ****** ****** ****** ****** ******
  12  ****** ****** ****** ****** ****** ****** ****** ****** ****** ******
      ****** ****** ****** ****** ****** ****** ****** ****** ****** ******
      ****** ****** ****** ****** ****** ****** ****** ****** ****** ******
  13  ****** ****** ****** ****** ****** ****** ****** ****** ****** ******
      ****** ****** ****** ****** ****** ****** ****** ****** ****** ******
      ****** ****** ****** ****** ****** ****** ****** ****** ****** ******
  14  ****** ****** ****** ****** ****** ****** ****** ****** ****** ******
      ****** ****** ****** ****** ****** ****** ****** ****** ****** ******
      ****** ****** ****** ****** ****** ****** ****** ****** ****** ******
  15  ****** ****** ****** ****** ****** ****** ****** ****** ****** ******
      ****** ****** ****** ****** ****** ****** ****** ****** ****** ******
      ****** ****** ****** ****** ****** ****** ****** ****** ****** ******
  16  ****** ****** ****** ****** ****** ****** ****** ****** ****** ******
      ****** ****** ****** ****** ****** ****** ****** ****** ****** ******
      ****** ****** ****** ****** ****** ****** ****** ****** ****** ******
  17  ****** ****** ****** ****** ****** ****** ****** ****** ****** ******
      ****** ****** ****** ****** ****** ****** ****** ****** ****** ******
      ****** ****** ****** ****** ****** ****** ****** ****** ****** ******
  18  ****** ****** ****** ****** ****** ****** ****** ****** ****** ******
      ****** ****** ****** ****** ****** ****** ****** ****** ****** ******
      ****** ****** ****** ****** ****** ****** ****** ****** ****** ******
  19  ****** ****** ****** ****** ****** ****** ****** ****** ****** ******
      ****** ****** ****** ****** ****** ****** ****** ****** ****** ******
      ****** ****** ****** ****** ****** ****** ****** ****** ****** ******
  20  ****** ****** ****** ****** ****** ****** ****** ****** ****** ******
      ****** ****** ****** ****** ****** ****** ****** ****** ****** ******
      ****** ****** ****** ****** ****** ****** ****** ****** ****** ******
  21  ****** ****** ****** ****** ****** ****** ****** ****** ****** ******
      ****** ****** ****** ****** ****** ****** ****** ****** ****** ******
      ****** ****** ****** ****** ****** ****** ****** ****** ****** ******
  22  ****** ****** ****** ****** ****** ****** ****** ****** ****** ******
      ****** ****** ****** ****** ****** ****** ****** ****** ****** ******
      ****** ****** ****** ****** ****** ****** ****** ****** ****** ******
  23  ****** ****** ****** ****** ****** ****** ****** ****** ****** ******
      ****** ****** ****** ****** ****** ****** ****** ****** ****** ******
      ****** ****** ****** ****** ****** ****** ****** ****** ****** ******
  24  ****** ****** ****** ****** ****** ****** ****** ****** ****** ******
      ****** ****** ****** ****** ****** ****** ****** ****** ****** ******
      ****** ****** ****** ****** ****** ****** ****** ****** ****** ******
  25  ****** ****** ****** ****** ****** ****** ****** ****** ****** ******
      ****** ****** ****** ****** ****** ****** ****** ****** ****** ******
      ****** ****** ****** ****** ****** ****** ****** ****** ****** ******

 HEAD WILL BE SAVED ON UNIT   51 AT END OF TIME STEP    1, STRESS PERIOD    1
1
  VOLUMETRIC BUDGET FOR ENTIRE MODEL AT END OF TIME STEP    1, STRESS PERIOD   1
  ------------------------------------------------------------------------------

     CUMULATIVE VOLUMES      L**3       RATES FOR THIS TIME STEP      L**3/T
     ------------------                 ------------------------

           IN:                                      IN:
           ---                                      ---
             STORAGE =    19276335.8121               STORAGE =      209525.3893
       CONSTANT HEAD =   102487052.2953         CONSTANT HEAD =     1113989.6989
               WELLS =           0.0000                 WELLS =           0.0000
            RECHARGE =     1269600.0000              RECHARGE =       13800.0000
      STREAM LEAKAGE =           0.0000        STREAM LEAKAGE =           0.0000

            TOTAL IN =   123032988.1074              TOTAL IN =     1337315.0881

          OUT:                                     OUT:
          ----                                     ----
             STORAGE =           0.0000               STORAGE =           0.0000
       CONSTANT HEAD =           0.0000         CONSTANT HEAD =           0.0000
               WELLS =     5273471.5777                 WELLS =       57320.3432
            RECHARGE =           0.0000              RECHARGE =           0.0000
      STREAM LEAKAGE =   117759518.3756        STREAM LEAKAGE =     1279994.7650

           TOTAL OUT =   123032989.9533             TOTAL OUT =     1337315.1082

            IN - OUT =          -1.8459              IN - OUT =      -2.0064E-02

 PERCENT DISCREPANCY =          -0.00     PERCENT DISCREPANCY =          -0.00






         TIME SUMMARY AT END OF TIME STEP    1 IN STRESS PERIOD    1
                    SECONDS     MINUTES      HOURS       DAYS        YEARS
                    -----------------------------------------------------------
   TIME STEP LENGTH 7.94880E+06 1.32480E+05  2208.0      92.000     0.25188    
 STRESS PERIOD TIME 7.94880E+06 1.32480E+05  2208.0      92.000     0.25188    
         TOTAL TIME 7.94880E+06 1.32480E+05  2208.0      92.000     0.25188    
1
1
                            STRESS PERIOD NO.    2, LENGTH =   91.00000    
                            -----------------------------------------------

                              NUMBER OF TIME STEPS =     1

                               MULTIPLIER FOR DELT =     1.500

                            INITIAL TIME STEP SIZE =   91.00000    

 WELL NO.  LAYER   ROW   COL   STRESS RATE         
 --------------------------------------------------
      1      1     10     10      -7320.    
      2      1      9     14     -0.2268E+05
      3      1      2     13     -0.5250E+05

      3 WELLS

                 RECHARGE =  2.000000E-03

 REUSING STREAM SEGMENT DATA FROM LAST STRESS PERIOD
 
 SOLVING FOR HEAD 


     6 CALLS TO PCG ROUTINE FOR TIME STEP   1 IN STRESS PERIOD    2
    25 TOTAL ITERATIONS

 OUTPUT CONTROL FOR STRESS PERIOD    2   TIME STEP    1
    SAVE BUDGET
    SAVE HEAD FOR ALL LAYERS
    PRINT HEAD FOR ALL LAYERS
 UBDSV2 SAVING "STREAMFLOW OUT  " ON UNIT  50 AT TIME STEP  1, STRESS PERIOD   2



 STREAM LISTING     PERIOD      2   STEP        1

 LAYER ROW COL. STREAM  RCH.  FLOW INTO     FLOW TO   FLOW OUT OF   OVRLND.     DIRECT     STREAM       STREAM     STREAM     STREAM   STREAMBED  STREAMBED
                SEG.NO.  NO.  STRM. RCH.    AQUIFER    STRM. RCH.    RUNOFF     PRECIP       ET          HEAD       DEPTH      WIDTH   CONDCTNC.   GRADIENT

   1   13    1     1     1    1.0000E+05 -2.8008E+04   1.2801E+05  0.000E+00  0.000E+00  0.000E+00  4.84179E+01  1.565E-01  2.000E+01  2.000E+04 -1.400E+00
   1   13    2     1     2    1.2801E+05 -3.7670E+04   1.6568E+05  0.000E+00  0.000E+00  0.000E+00  4.79662E+01  1.822E-01  2.000E+01  2.000E+04 -1.884E+00
   1   14    3     1     3    1.6568E+05 -3.3215E+04   1.9889E+05  0.000E+00  0.000E+00  0.000E+00  4.75142E+01  2.074E-01  2.000E+01  2.000E+04 -1.661E+00
   1   15    4     1     4    1.9889E+05 -3.2507E+04   2.3140E+05  0.000E+00  0.000E+00  0.000E+00  4.70586E+01  2.291E-01  2.000E+01  2.000E+04 -1.625E+00
   1   16    5     1     5    2.3140E+05 -3.4151E+04   2.6555E+05  0.000E+00  0.000E+00  0.000E+00  4.66020E+01  2.497E-01  2.000E+01  2.000E+04 -1.708E+00
   1   16    6     1     6    2.6555E+05 -2.9712E+04   2.9526E+05  0.000E+00  0.000E+00  0.000E+00  4.61435E+01  2.685E-01  2.000E+01  2.000E+04 -1.486E+00
   1   16    7     1     7    2.9526E+05 -2.9440E+04   3.2470E+05  0.000E+00  0.000E+00  0.000E+00  4.56829E+01  2.852E-01  2.000E+01  2.000E+04 -1.472E+00
   1   16    8     1     8    3.2470E+05 -2.9548E+04   3.5425E+05  0.000E+00  0.000E+00  0.000E+00  4.52216E+01  3.012E-01  2.000E+01  2.000E+04 -1.477E+00
   1   16    9     1     9    3.5425E+05 -2.9573E+04   3.8382E+05  0.000E+00  0.000E+00  0.000E+00  4.47598E+01  3.166E-01  2.000E+01  2.000E+04 -1.479E+00
   1   16   10     1    10    3.8382E+05 -2.9583E+04   4.1341E+05  0.000E+00  0.000E+00  0.000E+00  4.42975E+01  3.316E-01  2.000E+01  2.000E+04 -1.479E+00
   1   16   11     1    11    4.1341E+05 -3.0238E+04   4.4364E+05  0.000E+00  0.000E+00  0.000E+00  4.38350E+01  3.463E-01  2.000E+01  2.000E+04 -1.512E+00
   1   16   12     1    12    4.4364E+05 -3.5955E+04   4.7960E+05  0.000E+00  0.000E+00  0.000E+00  4.33735E+01  3.622E-01  2.000E+01  2.000E+04 -1.798E+00
   1   15   13     1    13    4.7960E+05 -3.4172E+04   5.1377E+05  0.000E+00  0.000E+00  0.000E+00  4.29125E+01  3.784E-01  2.000E+01  2.000E+04 -1.709E+00
   1   14   14     1    14    5.1377E+05 -3.4186E+04   5.4796E+05  0.000E+00  0.000E+00  0.000E+00  4.24507E+01  3.938E-01  2.000E+01  2.000E+04 -1.709E+00
   1   13   15     1    15    5.4796E+05 -3.5729E+04   5.8369E+05  0.000E+00  0.000E+00  0.000E+00  4.19887E+01  4.092E-01  2.000E+01  2.000E+04 -1.786E+00
   1   12   16     1    16    5.8369E+05 -4.1082E+04   6.2477E+05  0.000E+00  0.000E+00  0.000E+00  4.15279E+01  4.256E-01  2.000E+01  2.000E+04 -2.054E+00
   1   12   17     1    17    6.2477E+05 -3.2850E+04   6.5762E+05  0.000E+00  0.000E+00  0.000E+00  4.10661E+01  4.411E-01  2.000E+01  2.000E+04 -1.643E+00
   1   12   18     1    18    6.5762E+05 -3.1765E+04   6.8938E+05  0.000E+00  0.000E+00  0.000E+00  4.06020E+01  4.543E-01  2.000E+01  2.000E+04 -1.588E+00
   1   12   19     1    19    6.8938E+05 -3.6122E+04   7.2551E+05  0.000E+00  0.000E+00  0.000E+00  4.01383E+01  4.679E-01  2.000E+01  2.000E+04 -1.806E+00
   1   13   20     1    20    7.2551E+05 -2.6977E+04   7.5248E+05  0.000E+00  0.000E+00  0.000E+00  3.96735E+01  4.803E-01  2.000E+01  2.000E+04 -1.349E+00
   1   14   21     1    21    7.5248E+05 -2.0114E+04   7.7260E+05  0.000E+00  0.000E+00  0.000E+00  3.92053E+01  4.894E-01  2.000E+01  2.000E+04 -1.006E+00
   1   14   22     1    22    7.7260E+05 -1.9272E+03   7.7452E+05  0.000E+00  0.000E+00  0.000E+00  3.87323E+01  4.937E-01  2.000E+01  2.000E+04 -9.636E-02
   1    9   30     2     1    5.0000E+04 -2.6960E+04   7.6960E+04  0.000E+00  0.000E+00  0.000E+00  4.02587E+01  1.337E-01  2.000E+01  2.000E+04 -1.348E+00
   1    9   29     2     2    7.6960E+04 -2.9416E+04   1.0638E+05  0.000E+00  0.000E+00  0.000E+00  4.00417E+01  1.667E-01  2.000E+01  2.000E+04 -1.471E+00
   1    9   28     2     3    1.0638E+05 -3.3691E+04   1.4007E+05  0.000E+00  0.000E+00  0.000E+00  3.98241E+01  1.991E-01  2.000E+01  2.000E+04 -1.685E+00
   1    9   27     2     4    1.4007E+05 -4.7833E+04   1.8790E+05  0.000E+00  0.000E+00  0.000E+00  3.96113E+01  2.363E-01  2.000E+01  2.000E+04 -2.392E+00
   1   10   26     2     5    1.8790E+05 -3.3799E+04   2.2170E+05  0.000E+00  0.000E+00  0.000E+00  3.93950E+01  2.700E-01  2.000E+01  2.000E+04 -1.690E+00
   1   11   25     2     6    2.2170E+05 -2.5406E+04   2.4710E+05  0.000E+00  0.000E+00  0.000E+00  3.91678E+01  2.928E-01  2.000E+01  2.000E+04 -1.270E+00
   1   12   24     2     7    2.4710E+05 -1.8777E+04   2.6588E+05  0.000E+00  0.000E+00  0.000E+00  3.89340E+01  3.090E-01  2.000E+01  2.000E+04 -9.389E-01
   1   13   23     2     8    2.6588E+05 -1.3379E+04   2.7926E+05  0.000E+00  0.000E+00  0.000E+00  3.86955E+01  3.205E-01  2.000E+01  2.000E+04 -6.690E-01
   1   14   22     2     9    2.7926E+05 -7.5162E+03   2.8678E+05  0.000E+00  0.000E+00  0.000E+00  3.84528E+01  3.278E-01  2.000E+01  2.000E+04 -3.758E-01
   1   14   22     3     1    1.0613E+06 -1.5514E+04   1.0768E+06  0.000E+00  0.000E+00  0.000E+00  3.80529E+01  4.974E-01  2.000E+01  2.000E+04 -7.757E-01
   1   15   23     3     2    1.0768E+06 -2.4186E+04   1.1010E+06  0.000E+00  0.000E+00  0.000E+00  3.71696E+01  5.029E-01  2.000E+01  2.000E+04 -1.209E+00
   1   15   24     3     3    1.1010E+06 -2.0131E+04   1.1211E+06  0.000E+00  0.000E+00  0.000E+00  3.62868E+01  5.090E-01  2.000E+01  2.000E+04 -1.007E+00
   1   15   25     3     4    1.1211E+06 -1.9724E+04   1.1409E+06  0.000E+00  0.000E+00  0.000E+00  3.54034E+01  5.145E-01  2.000E+01  2.000E+04 -9.862E-01
   1   15   26     3     5    1.1409E+06 -2.2545E+04   1.1634E+06  0.000E+00  0.000E+00  0.000E+00  3.45202E+01  5.202E-01  2.000E+01  2.000E+04 -1.127E+00
   1   16   27     3     6    1.1634E+06 -2.9829E+04   1.1932E+06  0.000E+00  0.000E+00  0.000E+00  3.36384E+01  5.273E-01  2.000E+01  2.000E+04 -1.491E+00
   1   17   28     3     7    1.1932E+06 -3.6906E+04   1.2301E+06  0.000E+00  0.000E+00  0.000E+00  3.27584E+01  5.362E-01  2.000E+01  2.000E+04 -1.845E+00
   1   18   29     3     8    1.2301E+06 -4.7862E+04   1.2780E+06  0.000E+00  0.000E+00  0.000E+00  3.18807E+01  5.474E-01  2.000E+01  2.000E+04 -2.393E+00
   1   18   30     3     9    1.2780E+06 -4.4190E+04   1.3222E+06  0.000E+00  0.000E+00  0.000E+00  3.10038E+01  5.594E-01  2.000E+01  2.000E+04 -2.210E+00



1
              HEAD IN LAYER   1 AT END OF TIME STEP   1 IN STRESS PERIOD    2
  ---------------------------------------------------------------------------

          1      2      3      4      5      6      7      8      9     10
         11     12     13     14     15     16     17     18     19     20
         21     22     23     24     25     26     27     28     29     30
 .........................................................................
   1  ****** ****** ****** ****** ****** ****** ****** ****** ****** ******
      ****** ****** ****** ****** ****** ****** ****** ****** ****** ******
      ****** ****** ****** ****** ****** ****** ****** ****** ****** ******
   2  ****** ****** ****** ****** ****** ****** ****** ****** ****** ******
      ****** ****** ****** ****** ****** ****** ****** ****** ****** ******
      ****** ****** ****** ****** ****** ****** ****** ****** ****** ******
   3  ****** ****** ****** ****** ****** ****** ****** ****** ****** ******
      ****** ****** ****** ****** ****** ****** ****** ****** ****** ******
      ****** ****** ****** ****** ****** ****** ****** ****** ****** ******
   4  ****** ****** ****** ****** ****** ****** ****** ****** ****** ******
      ****** ****** ****** ****** ****** ****** ****** ****** ****** ******
      ****** ****** ****** ****** ****** ****** ****** ****** ****** ******
   5  ****** ****** ****** ****** ****** ****** ****** ****** ****** ******
      ****** ****** ****** ****** ****** ****** ****** ****** ****** ******
      ****** ****** ****** ****** ****** ****** ****** ****** ****** ******
   6  ****** ****** ****** ****** ****** ****** ****** ****** ****** ******
      ****** ****** ****** ****** ****** ****** ****** ****** ****** ******
      ****** ****** ****** ****** ****** ****** ****** ****** ****** ******
   7  ****** ****** ****** ****** ****** ****** ****** ****** ****** ******
      ****** ****** ****** ****** ****** ****** ****** ****** ****** ******
      ****** ****** ****** ****** ****** ****** ****** ****** ****** ******
   8  ****** ****** ****** ****** ****** ****** ****** ****** ****** ******
      ****** ****** ****** ****** ****** ****** ****** ****** ****** ******
      ****** ****** ****** ****** ****** ****** ****** ****** ****** ******
   9  ****** ****** ****** ****** ****** ****** ****** ****** ****** ******
      ****** ****** ****** ****** ****** ****** ****** ****** ****** ******
      ****** ****** ****** ****** ****** ****** ****** ****** ****** ******
  10  ****** ****** ****** ****** ****** ****** ****** ****** ****** ******
      ****** ****** ****** ****** ****** ****** ****** ****** ****** ******
      ****** ****** ****** ****** ****** ****** ****** ****** ****** ******
  11  ****** ****** ****** ****** ****** ****** ****** ****** ****** ******
      ****** ****** ****** ****** ****** ****** ****** ****** ****** ******
      ****** ****** ****** ****** ****** ****** ****** ****** ****** ******
  12  ****** ****** ****** ****** ****** ****** ****** ****** ****** ******
      ****** ****** ****** ****** ****** ****** ****** ****** ****** ******
      ****** ****** ****** ****** ****** ****** ****** ****** ****** ******
  13  ****** ****** ****** ****** ****** ****** ****** ****** ****** ******
      ****** ****** ****** ****** ****** ****** ****** ****** ****** ******
      ****** ****** ****** ****** ****** ****** ****** ****** ****** ******
  14  ****** ****** ****** ****** ****** ****** ****** ****** ****** ******
      ****** ****** ****** ****** ****** ****** ****** ****** ****** ******
      ****** ****** ****** ****** ****** ****** ****** ****** ****** ******
  15  ****** ****** ****** ****** ****** ****** ****** ****** ****** ******
      ****** ****** ****** ****** ****** ****** ****** ****** ****** ******
      ****** ****** ****** ****** ****** ****** ****** ****** ****** ******
  16  ****** ****** ****** ****** ****** ****** ****** ****** ****** ******
      ****** ****** ****** ****** ****** ****** ****** ****** ****** ******
      ****** ****** ****** ****** ****** ****** ****** ****** ****** ******
  17  ****** ****** ****** ****** ****** ****** ****** ****** ****** ******
      ****** ****** ****** ****** ****** ****** ****** ****** ****** ******
      ****** ****** ****** ****** ****** ****** ****** ****** ****** ******
  18  ****** ****** ****** ****** ****** ****** ****** ****** ****** ******
      ****** ****** ****** ****** ****** ****** ****** ****** ****** ******
      ****** ****** ****** ****** ****** ****** ****** ****** ****** ******
  19  ****** ****** ****** ****** ****** ****** ****** ****** ****** ******
      ****** ****** ****** ****** ****** ****** ****** ****** ****** ******
      ****** ****** ****** ****** ****** ****** ****** ****** ****** ******
  20  ****** ****** ****** ****** ****** ****** ****** ****** ****** ******
      ****** ****** ****** ****** ****** ****** ****** ****** ****** ******
      ****** ****** ****** ****** ****** ****** ****** ****** ****** ******
  21  ****** ****** ****** ****** ****** ****** ****** ****** ****** ******
      ****** ****** ****** ****** ****** ****** ****** ****** ****** ******
      ****** ****** ****** ****** ****** ****** ****** ****** ****** ******
  22  ****** ****** ****** ****** ****** ****** ****** ****** ****** ******
      ****** ****** ****** ****** ****** ****** ****** ****** ****** ******
      ****** ****** ****** ****** ****** ****** ****** ****** ****** ******
  23  ****** ****** ****** ****** ****** ****** ****** ****** ****** ******
      ****** ****** ****** ****** ****** ****** ****** ****** ****** ******
      ****** ****** ****** ****** ****** ****** ****** ****** ****** ******
  24  ****** ****** ****** ****** ****** ****** ****** ****** ****** ******
      ****** ****** ****** ****** ****** ****** ****** ****** ****** ******
      ****** ****** ****** ****** ****** ****** ****** ****** ****** ******
  25  ****** ****** ****** ****** ****** ****** ****** ****** ****** ******
      ****** ****** ****** ****** ****** ****** ****** ****** ****** ******
      ****** ****** ****** ****** ****** ****** ****** ****** ****** ******

 HEAD WILL BE SAVED ON UNIT   51 AT END OF TIME STEP    1, STRESS PERIOD    2
1
  VOLUMETRIC BUDGET FOR ENTIRE MODEL AT END OF TIME STEP    1, STRESS PERIOD   2
  ------------------------------------------------------------------------------

     CUMULATIVE VOLUMES      L**3       RATES FOR THIS TIME STEP      L**3/T
     ------------------                 ------------------------

           IN:                                      IN:
           ---                                      ---
             STORAGE =    19898489.1559               STORAGE =        6836.8499
       CONSTANT HEAD =   211027802.9397         CONSTANT HEAD =     1192755.5016
               WELLS =           0.0000                 WELLS =           0.0000
            RECHARGE =     6292800.0000              RECHARGE =       55200.0000
      STREAM LEAKAGE =           0.0000        STREAM LEAKAGE =           0.0000

            TOTAL IN =   237219092.0956              TOTAL IN =     1254792.3515

          OUT:                                     OUT:
          ----                                     ----
             STORAGE =        9332.9141               STORAGE =         102.5595
       CONSTANT HEAD =           0.0000         CONSTANT HEAD =           0.0000
               WELLS =    12781039.8277                 WELLS =       82500.7500
            RECHARGE =           0.0000              RECHARGE =           0.0000
      STREAM LEAKAGE =   224428722.7867        STREAM LEAKAGE =     1172189.0595

           TOTAL OUT =   237219095.5285             TOTAL OUT =     1254792.3690

            IN - OUT =          -3.4329              IN - OUT =      -1.7440E-02

 PERCENT DISCREPANCY =          -0.00     PERCENT DISCREPANCY =          -0.00






         TIME SUMMARY AT END OF TIME STEP    1 IN STRESS PERIOD    2
                    SECONDS     MINUTES      HOURS       DAYS        YEARS
                    -----------------------------------------------------------
   TIME STEP LENGTH 7.86240E+06 1.31040E+05  2184.0      91.000     0.24914    
 STRESS PERIOD TIME 7.86240E+06 1.31040E+05  2184.0      91.000     0.24914    
         TOTAL TIME 1.58112E+07 2.63520E+05  4392.0      183.00     0.50103    
1
1
                            STRESS PERIOD NO.    3, LENGTH =   91.00000    
                            -----------------------------------------------

                              NUMBER OF TIME STEPS =     1

                               MULTIPLIER FOR DELT =     1.500

                            INITIAL TIME STEP SIZE =   91.00000    

 WELL NO.  LAYER   ROW   COL   STRESS RATE         
 --------------------------------------------------
      1      1     10     10      -7320.    
      2      1      9     14     -0.2622E+05

      2 WELLS

                 RECHARGE =   0.00000    

 REUSING STREAM SEGMENT DATA FROM LAST STRESS PERIOD
 
 SOLVING FOR HEAD 


     6 CALLS TO PCG ROUTINE FOR TIME STEP   1 IN STRESS PERIOD    3
    23 TOTAL ITERATIONS

 OUTPUT CONTROL FOR STRESS PERIOD    3   TIME STEP    1
    SAVE BUDGET
    SAVE HEAD FOR ALL LAYERS
    PRINT HEAD FOR ALL LAYERS
 UBDSV2 SAVING "STREAMFLOW OUT  " ON UNIT  50 AT TIME STEP  1, STRESS PERIOD   3



 STREAM LISTING     PERIOD      3   STEP        1

 LAYER ROW COL. STREAM  RCH.  FLOW INTO     FLOW TO   FLOW OUT OF   OVRLND.     DIRECT     STREAM       STREAM     STREAM     STREAM   STREAMBED  STREAMBED
                SEG.NO.  NO.  STRM. RCH.    AQUIFER    STRM. RCH.    RUNOFF     PRECIP       ET          HEAD       DEPTH      WIDTH   CONDCTNC.   GRADIENT

   1   13    1     1     1    1.0000E+05 -2.7069E+04   1.2707E+05  0.000E+00  0.000E+00  0.000E+00  4.84175E+01  1.561E-01  2.000E+01  2.000E+04 -1.353E+00
   1   13    2     1     2    1.2707E+05 -3.6557E+04   1.6363E+05  0.000E+00  0.000E+00  0.000E+00  4.79651E+01  1.810E-01  2.000E+01  2.000E+04 -1.828E+00
   1   14    3     1     3    1.6363E+05 -3.2115E+04   1.9574E+05  0.000E+00  0.000E+00  0.000E+00  4.75124E+01  2.056E-01  2.000E+01  2.000E+04 -1.606E+00
   1   15    4     1     4    1.9574E+05 -3.1442E+04   2.2718E+05  0.000E+00  0.000E+00  0.000E+00  4.70563E+01  2.267E-01  2.000E+01  2.000E+04 -1.572E+00
   1   16    5     1     5    2.2718E+05 -3.3178E+04   2.6036E+05  0.000E+00  0.000E+00  0.000E+00  4.65992E+01  2.469E-01  2.000E+01  2.000E+04 -1.659E+00
   1   16    6     1     6    2.6036E+05 -2.8877E+04   2.8924E+05  0.000E+00  0.000E+00  0.000E+00  4.61403E+01  2.653E-01  2.000E+01  2.000E+04 -1.444E+00
   1   16    7     1     7    2.8924E+05 -2.8619E+04   3.1786E+05  0.000E+00  0.000E+00  0.000E+00  4.56793E+01  2.816E-01  2.000E+01  2.000E+04 -1.431E+00
   1   16    8     1     8    3.1786E+05 -2.8727E+04   3.4658E+05  0.000E+00  0.000E+00  0.000E+00  4.52177E+01  2.973E-01  2.000E+01  2.000E+04 -1.436E+00
   1   16    9     1     9    3.4658E+05 -2.8754E+04   3.7534E+05  0.000E+00  0.000E+00  0.000E+00  4.47556E+01  3.125E-01  2.000E+01  2.000E+04 -1.438E+00
   1   16   10     1    10    3.7534E+05 -2.8765E+04   4.0410E+05  0.000E+00  0.000E+00  0.000E+00  4.42931E+01  3.272E-01  2.000E+01  2.000E+04 -1.438E+00
   1   16   11     1    11    4.0410E+05 -2.9403E+04   4.3351E+05  0.000E+00  0.000E+00  0.000E+00  4.38302E+01  3.416E-01  2.000E+01  2.000E+04 -1.470E+00
   1   16   12     1    12    4.3351E+05 -3.4965E+04   4.6847E+05  0.000E+00  0.000E+00  0.000E+00  4.33685E+01  3.571E-01  2.000E+01  2.000E+04 -1.748E+00
   1   15   13     1    13    4.6847E+05 -3.3094E+04   5.0157E+05  0.000E+00  0.000E+00  0.000E+00  4.29072E+01  3.731E-01  2.000E+01  2.000E+04 -1.655E+00
   1   14   14     1    14    5.0157E+05 -3.3077E+04   5.3464E+05  0.000E+00  0.000E+00  0.000E+00  4.24449E+01  3.881E-01  2.000E+01  2.000E+04 -1.654E+00
   1   13   15     1    15    5.3464E+05 -3.4631E+04   5.6927E+05  0.000E+00  0.000E+00  0.000E+00  4.19827E+01  4.032E-01  2.000E+01  2.000E+04 -1.732E+00
   1   12   16     1    16    5.6927E+05 -4.0056E+04   6.0933E+05  0.000E+00  0.000E+00  0.000E+00  4.15216E+01  4.193E-01  2.000E+01  2.000E+04 -2.003E+00
   1   12   17     1    17    6.0933E+05 -3.2046E+04   6.4138E+05  0.000E+00  0.000E+00  0.000E+00  4.10595E+01  4.345E-01  2.000E+01  2.000E+04 -1.602E+00
   1   12   18     1    18    6.4138E+05 -3.1008E+04   6.7238E+05  0.000E+00  0.000E+00  0.000E+00  4.05953E+01  4.475E-01  2.000E+01  2.000E+04 -1.550E+00
   1   12   19     1    19    6.7238E+05 -3.5298E+04   7.0768E+05  0.000E+00  0.000E+00  0.000E+00  4.01314E+01  4.609E-01  2.000E+01  2.000E+04 -1.765E+00
   1   13   20     1    20    7.0768E+05 -2.6157E+04   7.3384E+05  0.000E+00  0.000E+00  0.000E+00  3.96663E+01  4.731E-01  2.000E+01  2.000E+04 -1.308E+00
   1   14   21     1    21    7.3384E+05 -1.9380E+04   7.5322E+05  0.000E+00  0.000E+00  0.000E+00  3.91980E+01  4.821E-01  2.000E+01  2.000E+04 -9.690E-01
   1   14   22     1    22    7.5322E+05 -1.6729E+03   7.5489E+05  0.000E+00  0.000E+00  0.000E+00  3.87248E+01  4.861E-01  2.000E+01  2.000E+04 -8.365E-02
   1    9   30     2     1    5.0000E+04 -2.6307E+04   7.6307E+04  0.000E+00  0.000E+00  0.000E+00  4.02583E+01  1.333E-01  2.000E+01  2.000E+04 -1.315E+00
   1    9   29     2     2    7.6307E+04 -2.8766E+04   1.0507E+05  0.000E+00  0.000E+00  0.000E+00  4.00406E+01  1.656E-01  2.000E+01  2.000E+04 -1.438E+00
   1    9   28     2     3    1.0507E+05 -3.3024E+04   1.3810E+05  0.000E+00  0.000E+00  0.000E+00  3.98225E+01  1.975E-01  2.000E+01  2.000E+04 -1.651E+00
   1    9   27     2     4    1.3810E+05 -4.7028E+04   1.8512E+05  0.000E+00  0.000E+00  0.000E+00  3.96092E+01  2.342E-01  2.000E+01  2.000E+04 -2.351E+00
   1   10   26     2     5    1.8512E+05 -3.2964E+04   2.1809E+05  0.000E+00  0.000E+00  0.000E+00  3.93925E+01  2.675E-01  2.000E+01  2.000E+04 -1.648E+00
   1   11   25     2     6    2.1809E+05 -2.4605E+04   2.4269E+05  0.000E+00  0.000E+00  0.000E+00  3.91648E+01  2.898E-01  2.000E+01  2.000E+04 -1.230E+00
   1   12   24     2     7    2.4269E+05 -1.8066E+04   2.6076E+05  0.000E+00  0.000E+00  0.000E+00  3.89306E+01  3.056E-01  2.000E+01  2.000E+04 -9.033E-01
   1   13   23     2     8    2.6076E+05 -1.2802E+04   2.7356E+05  0.000E+00  0.000E+00  0.000E+00  3.86917E+01  3.167E-01  2.000E+01  2.000E+04 -6.401E-01
   1   14   22     2     9    2.7356E+05 -7.1936E+03   2.8076E+05  0.000E+00  0.000E+00  0.000E+00  3.84487E+01  3.237E-01  2.000E+01  2.000E+04 -3.597E-01
   1   14   22     3     1    1.0356E+06 -1.5254E+04   1.0509E+06  0.000E+00  0.000E+00  0.000E+00  3.80457E+01  4.902E-01  2.000E+01  2.000E+04 -7.627E-01
   1   15   23     3     2    1.0509E+06 -2.3491E+04   1.0744E+06  0.000E+00  0.000E+00  0.000E+00  3.71623E+01  4.956E-01  2.000E+01  2.000E+04 -1.175E+00
   1   15   24     3     3    1.0744E+06 -1.9561E+04   1.0940E+06  0.000E+00  0.000E+00  0.000E+00  3.62794E+01  5.016E-01  2.000E+01  2.000E+04 -9.781E-01
   1   15   25     3     4    1.0940E+06 -1.9159E+04   1.1131E+06  0.000E+00  0.000E+00  0.000E+00  3.53958E+01  5.070E-01  2.000E+01  2.000E+04 -9.579E-01
   1   15   26     3     5    1.1131E+06 -2.1884E+04   1.1350E+06  0.000E+00  0.000E+00  0.000E+00  3.45126E+01  5.126E-01  2.000E+01  2.000E+04 -1.094E+00
   1   16   27     3     6    1.1350E+06 -2.9026E+04   1.1640E+06  0.000E+00  0.000E+00  0.000E+00  3.36306E+01  5.195E-01  2.000E+01  2.000E+04 -1.451E+00
   1   17   28     3     7    1.1640E+06 -3.6085E+04   1.2001E+06  0.000E+00  0.000E+00  0.000E+00  3.27505E+01  5.283E-01  2.000E+01  2.000E+04 -1.804E+00
   1   18   29     3     8    1.2001E+06 -4.7096E+04   1.2472E+06  0.000E+00  0.000E+00  0.000E+00  3.18727E+01  5.394E-01  2.000E+01  2.000E+04 -2.355E+00
   1   18   30     3     9    1.2472E+06 -4.3553E+04   1.2908E+06  0.000E+00  0.000E+00  0.000E+00  3.09957E+01  5.513E-01  2.000E+01  2.000E+04 -2.178E+00



1
              HEAD IN LAYER   1 AT END OF TIME STEP   1 IN STRESS PERIOD    3
  ---------------------------------------------------------------------------

          1      2      3      4      5      6      7      8      9     10
         11     12     13     14     15     16     17     18     19     20
         21     22     23     24     25     26     27     28     29     30
 .........................................................................
   1  ****** ****** ****** ****** ****** ****** ****** ****** ****** ******
      ****** ****** ****** ****** ****** ****** ****** ****** ****** ******
      ****** ****** ****** ****** ****** ****** ****** ****** ****** ******
   2  ****** ****** ****** ****** ****** ****** ****** ****** ****** ******
      ****** ****** ****** ****** ****** ****** ****** ****** ****** ******
      ****** ****** ****** ****** ****** ****** ****** ****** ****** ******
   3  ****** ****** ****** ****** ****** ****** ****** ****** ****** ******
      ****** ****** ****** ****** ****** ****** ****** ****** ****** ******
      ****** ****** ****** ****** ****** ****** ****** ****** ****** ******
   4  ****** ****** ****** ****** ****** ****** ****** ****** ****** ******
      ****** ****** ****** ****** ****** ****** ****** ****** ****** ******
      ****** ****** ****** ****** ****** ****** ****** ****** ****** ******
   5  ****** ****** ****** ****** ****** ****** ****** ****** ****** ******
      ****** ****** ****** ****** ****** ****** ****** ****** ****** ******
      ****** ****** ****** ****** ****** ****** ****** ****** ****** ******
   6  ****** ****** ****** ****** ****** ****** ****** ****** ****** ******
      ****** ****** ****** ****** ****** ****** ****** ****** ****** ******
      ****** ****** ****** ****** ****** ****** ****** ****** ****** ******
   7  ****** ****** ****** ****** ****** ****** ****** ****** ****** ******
      ****** ****** ****** ****** ****** ****** ****** ****** ****** ******
      ****** ****** ****** ****** ****** ****** ****** ****** ****** ******
   8  ****** ****** ****** ****** ****** ****** ****** ****** ****** ******
      ****** ****** ****** ****** ****** ****** ****** ****** ****** ******
      ****** ****** ****** ****** ****** ****** ****** ****** ****** ******
   9  ****** ****** ****** ****** ****** ****** ****** ****** ****** ******
      ****** ****** ****** ****** ****** ****** ****** ****** ****** ******
      ****** ****** ****** ****** ****** ****** ****** ****** ****** ******
  10  ****** ****** ****** ****** ****** ****** ****** ****** ****** ******
      ****** ****** ****** ****** ****** ****** ****** ****** ****** ******
      ****** ****** ****** ****** ****** ****** ****** ****** ****** ******
  11  ****** ****** ****** ****** ****** ****** ****** ****** ****** ******
      ****** ****** ****** ****** ****** ****** ****** ****** ****** ******
      ****** ****** ****** ****** ****** ****** ****** ****** ****** ******
  12  ****** ****** ****** ****** ****** ****** ****** ****** ****** ******
      ****** ****** ****** ****** ****** ****** ****** ****** ****** ******
      ****** ****** ****** ****** ****** ****** ****** ****** ****** ******
  13  ****** ****** ****** ****** ****** ****** ****** ****** ****** ******
      ****** ****** ****** ****** ****** ****** ****** ****** ****** ******
      ****** ****** ****** ****** ****** ****** ****** ****** ****** ******
  14  ****** ****** ****** ****** ****** ****** ****** ****** ****** ******
      ****** ****** ****** ****** ****** ****** ****** ****** ****** ******
      ****** ****** ****** ****** ****** ****** ****** ****** ****** ******
  15  ****** ****** ****** ****** ****** ****** ****** ****** ****** ******
      ****** ****** ****** ****** ****** ****** ****** ****** ****** ******
      ****** ****** ****** ****** ****** ****** ****** ****** ****** ******
  16  ****** ****** ****** ****** ****** ****** ****** ****** ****** ******
      ****** ****** ****** ****** ****** ****** ****** ****** ****** ******
      ****** ****** ****** ****** ****** ****** ****** ****** ****** ******
  17  ****** ****** ****** ****** ****** ****** ****** ****** ****** ******
      ****** ****** ****** ****** ****** ****** ****** ****** ****** ******
      ****** ****** ****** ****** ****** ****** ****** ****** ****** ******
  18  ****** ****** ****** ****** ****** ****** ****** ****** ****** ******
      ****** ****** ****** ****** ****** ****** ****** ****** ****** ******
      ****** ****** ****** ****** ****** ****** ****** ****** ****** ******
  19  ****** ****** ****** ****** ****** ****** ****** ****** ****** ******
      ****** ****** ****** ****** ****** ****** ****** ****** ****** ******
      ****** ****** ****** ****** ****** ****** ****** ****** ****** ******
  20  ****** ****** ****** ****** ****** ****** ****** ****** ****** ******
      ****** ****** ****** ****** ****** ****** ****** ****** ****** ******
      ****** ****** ****** ****** ****** ****** ****** ****** ****** ******
  21  ****** ****** ****** ****** ****** ****** ****** ****** ****** ******
      ****** ****** ****** ****** ****** ****** ****** ****** ****** ******
      ****** ****** ****** ****** ****** ****** ****** ****** ****** ******
  22  ****** ****** ****** ****** ****** ****** ****** ****** ****** ******
      ****** ****** ****** ****** ****** ****** ****** ****** ****** ******
      ****** ****** ****** ****** ****** ****** ****** ****** ****** ******
  23  ****** ****** ****** ****** ****** ****** ****** ****** ****** ******
      ****** ****** ****** ****** ****** ****** ****** ****** ****** ******
      ****** ****** ****** ****** ****** ****** ****** ****** ****** ******
  24  ****** ****** ****** ****** ****** ****** ****** ****** ****** ******
      ****** ****** ****** ****** ****** ****** ****** ****** ****** ******
      ****** ****** ****** ****** ****** ****** ****** ****** ****** ******
  25  ****** ****** ****** ****** ****** ****** ****** ****** ****** ******
      ****** ****** ****** ****** ****** ****** ****** ****** ****** ******
      ****** ****** ****** ****** ****** ****** ****** ****** ****** ******

 HEAD WILL BE SAVED ON UNIT   51 AT END OF TIME STEP    1, STRESS PERIOD    3
1
  VOLUMETRIC BUDGET FOR ENTIRE MODEL AT END OF TIME STEP    1, STRESS PERIOD   3
  ------------------------------------------------------------------------------

     CUMULATIVE VOLUMES      L**3       RATES FOR THIS TIME STEP      L**3/T
     ------------------                 ------------------------

           IN:                                      IN:
           ---                                      ---
             STORAGE =    20114599.5454               STORAGE =        2374.8394
       CONSTANT HEAD =   317708379.8531         CONSTANT HEAD =     1172314.0320
               WELLS =           0.0000                 WELLS =           0.0000
            RECHARGE =     6292800.0000              RECHARGE =           0.0000
      STREAM LEAKAGE =           0.0000        STREAM LEAKAGE =           0.0000

            TOTAL IN =   344115779.3986              TOTAL IN =     1174688.8715

          OUT:                                     OUT:
          ----                                     ----
             STORAGE =       45620.3226               STORAGE =         398.7627
       CONSTANT HEAD =           0.0000         CONSTANT HEAD =           0.0000
               WELLS =    15832798.9136                 WELLS =       33535.8141
            RECHARGE =           0.0000              RECHARGE =           0.0000
      STREAM LEAKAGE =   328237366.2304        STREAM LEAKAGE =     1140754.3236

           TOTAL OUT =   344115785.4666             TOTAL OUT =     1174688.9004

            IN - OUT =          -6.0680              IN - OUT =      -2.8957E-02

 PERCENT DISCREPANCY =          -0.00     PERCENT DISCREPANCY =          -0.00






         TIME SUMMARY AT END OF TIME STEP    1 IN STRESS PERIOD    3
                    SECONDS     MINUTES      HOURS       DAYS        YEARS
                    -----------------------------------------------------------
   TIME STEP LENGTH 7.86240E+06 1.31040E+05  2184.0      91.000     0.24914    
 STRESS PERIOD TIME 7.86240E+06 1.31040E+05  2184.0      91.000     0.24914    
         TOTAL TIME 2.36736E+07 3.94560E+05  6576.0      274.00     0.75017    
1
1
                            STRESS PERIOD NO.    4, LENGTH =   91.00000    
                            -----------------------------------------------

                              NUMBER OF TIME STEPS =     1

                               MULTIPLIER FOR DELT =     1.500

                            INITIAL TIME STEP SIZE =   91.00000    

 WELL NO.  LAYER   ROW   COL   STRESS RATE         
 --------------------------------------------------
      1      1     10     10      -7320.    
      2      1      9     14     -0.2108E+05
      3      1      2     13     -0.5000E+05

      3 WELLS

                 RECHARGE =  1.000000E-03

 REUSING STREAM SEGMENT DATA FROM LAST STRESS PERIOD
 
 SOLVING FOR HEAD 


     5 CALLS TO PCG ROUTINE FOR TIME STEP   1 IN STRESS PERIOD    4
    20 TOTAL ITERATIONS

 OUTPUT CONTROL FOR STRESS PERIOD    4   TIME STEP    1
    SAVE BUDGET
    SAVE HEAD FOR ALL LAYERS
    PRINT HEAD FOR ALL LAYERS
 UBDSV2 SAVING "STREAMFLOW OUT  " ON UNIT  50 AT TIME STEP  1, STRESS PERIOD   4



 STREAM LISTING     PERIOD      4   STEP        1

 LAYER ROW COL. STREAM  RCH.  FLOW INTO     FLOW TO   FLOW OUT OF   OVRLND.     DIRECT     STREAM       STREAM     STREAM     STREAM   STREAMBED  STREAMBED
                SEG.NO.  NO.  STRM. RCH.    AQUIFER    STRM. RCH.    RUNOFF     PRECIP       ET          HEAD       DEPTH      WIDTH   CONDCTNC.   GRADIENT

   1   13    1     1     1    1.0000E+05 -2.7399E+04   1.2740E+05  0.000E+00  0.000E+00  0.000E+00  4.84176E+01  1.562E-01  2.000E+01  2.000E+04 -1.370E+00
   1   13    2     1     2    1.2740E+05 -3.6941E+04   1.6434E+05  0.000E+00  0.000E+00  0.000E+00  4.79655E+01  1.814E-01  2.000E+01  2.000E+04 -1.847E+00
   1   14    3     1     3    1.6434E+05 -3.2514E+04   1.9685E+05  0.000E+00  0.000E+00  0.000E+00  4.75130E+01  2.062E-01  2.000E+01  2.000E+04 -1.626E+00
   1   15    4     1     4    1.9685E+05 -3.1842E+04   2.2870E+05  0.000E+00  0.000E+00  0.000E+00  4.70571E+01  2.276E-01  2.000E+01  2.000E+04 -1.592E+00
   1   16    5     1     5    2.2870E+05 -3.3556E+04   2.6225E+05  0.000E+00  0.000E+00  0.000E+00  4.66002E+01  2.479E-01  2.000E+01  2.000E+04 -1.678E+00
   1   16    6     1     6    2.6225E+05 -2.9199E+04   2.9145E+05  0.000E+00  0.000E+00  0.000E+00  4.61415E+01  2.665E-01  2.000E+01  2.000E+04 -1.460E+00
   1   16    7     1     7    2.9145E+05 -2.8936E+04   3.2039E+05  0.000E+00  0.000E+00  0.000E+00  4.56807E+01  2.829E-01  2.000E+01  2.000E+04 -1.447E+00
   1   16    8     1     8    3.2039E+05 -2.9048E+04   3.4944E+05  0.000E+00  0.000E+00  0.000E+00  4.52192E+01  2.987E-01  2.000E+01  2.000E+04 -1.452E+00
   1   16    9     1     9    3.4944E+05 -2.9078E+04   3.7851E+05  0.000E+00  0.000E+00  0.000E+00  4.47572E+01  3.140E-01  2.000E+01  2.000E+04 -1.454E+00
   1   16   10     1    10    3.7851E+05 -2.9094E+04   4.0761E+05  0.000E+00  0.000E+00  0.000E+00  4.42948E+01  3.289E-01  2.000E+01  2.000E+04 -1.455E+00
   1   16   11     1    11    4.0761E+05 -2.9745E+04   4.3735E+05  0.000E+00  0.000E+00  0.000E+00  4.38320E+01  3.434E-01  2.000E+01  2.000E+04 -1.487E+00
   1   16   12     1    12    4.3735E+05 -3.5372E+04   4.7273E+05  0.000E+00  0.000E+00  0.000E+00  4.33704E+01  3.590E-01  2.000E+01  2.000E+04 -1.769E+00
   1   15   13     1    13    4.7273E+05 -3.3555E+04   5.0628E+05  0.000E+00  0.000E+00  0.000E+00  4.29092E+01  3.751E-01  2.000E+01  2.000E+04 -1.678E+00
   1   14   14     1    14    5.0628E+05 -3.3590E+04   5.3987E+05  0.000E+00  0.000E+00  0.000E+00  4.24472E+01  3.904E-01  2.000E+01  2.000E+04 -1.679E+00
   1   13   15     1    15    5.3987E+05 -3.5195E+04   5.7507E+05  0.000E+00  0.000E+00  0.000E+00  4.19851E+01  4.056E-01  2.000E+01  2.000E+04 -1.760E+00
   1   12   16     1    16    5.7507E+05 -4.0628E+04   6.1569E+05  0.000E+00  0.000E+00  0.000E+00  4.15242E+01  4.219E-01  2.000E+01  2.000E+04 -2.031E+00
   1   12   17     1    17    6.1569E+05 -3.2440E+04   6.4813E+05  0.000E+00  0.000E+00  0.000E+00  4.10622E+01  4.372E-01  2.000E+01  2.000E+04 -1.622E+00
   1   12   18     1    18    6.4813E+05 -3.1343E+04   6.7948E+05  0.000E+00  0.000E+00  0.000E+00  4.05981E+01  4.503E-01  2.000E+01  2.000E+04 -1.567E+00
   1   12   19     1    19    6.7948E+05 -3.5638E+04   7.1512E+05  0.000E+00  0.000E+00  0.000E+00  4.01343E+01  4.638E-01  2.000E+01  2.000E+04 -1.782E+00
   1   13   20     1    20    7.1512E+05 -2.6490E+04   7.4161E+05  0.000E+00  0.000E+00  0.000E+00  3.96693E+01  4.761E-01  2.000E+01  2.000E+04 -1.325E+00
   1   14   21     1    21    7.4161E+05 -1.9676E+04   7.6128E+05  0.000E+00  0.000E+00  0.000E+00  3.92010E+01  4.851E-01  2.000E+01  2.000E+04 -9.838E-01
   1   14   22     1    22    7.6128E+05 -1.7769E+03   7.6306E+05  0.000E+00  0.000E+00  0.000E+00  3.87279E+01  4.893E-01  2.000E+01  2.000E+04 -8.885E-02
   1    9   30     2     1    5.0000E+04 -2.6578E+04   7.6578E+04  0.000E+00  0.000E+00  0.000E+00  4.02585E+01  1.335E-01  2.000E+01  2.000E+04 -1.329E+00
   1    9   29     2     2    7.6578E+04 -2.9035E+04   1.0561E+05  0.000E+00  0.000E+00  0.000E+00  4.00411E+01  1.661E-01  2.000E+01  2.000E+04 -1.452E+00
   1    9   28     2     3    1.0561E+05 -3.3298E+04   1.3891E+05  0.000E+00  0.000E+00  0.000E+00  3.98231E+01  1.981E-01  2.000E+01  2.000E+04 -1.665E+00
   1    9   27     2     4    1.3891E+05 -4.7351E+04   1.8626E+05  0.000E+00  0.000E+00  0.000E+00  3.96101E+01  2.351E-01  2.000E+01  2.000E+04 -2.368E+00
   1   10   26     2     5    1.8626E+05 -3.3299E+04   2.1956E+05  0.000E+00  0.000E+00  0.000E+00  3.93935E+01  2.685E-01  2.000E+01  2.000E+04 -1.665E+00
   1   11   25     2     6    2.1956E+05 -2.4927E+04   2.4449E+05  0.000E+00  0.000E+00  0.000E+00  3.91660E+01  2.910E-01  2.000E+01  2.000E+04 -1.246E+00
   1   12   24     2     7    2.4449E+05 -1.8355E+04   2.6284E+05  0.000E+00  0.000E+00  0.000E+00  3.89320E+01  3.070E-01  2.000E+01  2.000E+04 -9.177E-01
   1   13   23     2     8    2.6284E+05 -1.3040E+04   2.7588E+05  0.000E+00  0.000E+00  0.000E+00  3.86933E+01  3.183E-01  2.000E+01  2.000E+04 -6.520E-01
   1   14   22     2     9    2.7588E+05 -7.3268E+03   2.8321E+05  0.000E+00  0.000E+00  0.000E+00  3.84504E+01  3.254E-01  2.000E+01  2.000E+04 -3.663E-01
   1   14   22     3     1    1.0463E+06 -1.5361E+04   1.0616E+06  0.000E+00  0.000E+00  0.000E+00  3.80487E+01  4.932E-01  2.000E+01  2.000E+04 -7.680E-01
   1   15   23     3     2    1.0616E+06 -2.3774E+04   1.0854E+06  0.000E+00  0.000E+00  0.000E+00  3.71653E+01  4.986E-01  2.000E+01  2.000E+04 -1.189E+00
   1   15   24     3     3    1.0854E+06 -1.9797E+04   1.1052E+06  0.000E+00  0.000E+00  0.000E+00  3.62825E+01  5.047E-01  2.000E+01  2.000E+04 -9.898E-01
   1   15   25     3     4    1.1052E+06 -1.9394E+04   1.1246E+06  0.000E+00  0.000E+00  0.000E+00  3.53990E+01  5.101E-01  2.000E+01  2.000E+04 -9.697E-01
   1   15   26     3     5    1.1246E+06 -2.2159E+04   1.1468E+06  0.000E+00  0.000E+00  0.000E+00  3.45158E+01  5.158E-01  2.000E+01  2.000E+04 -1.108E+00
   1   16   27     3     6    1.1468E+06 -2.9358E+04   1.1761E+06  0.000E+00  0.000E+00  0.000E+00  3.36339E+01  5.228E-01  2.000E+01  2.000E+04 -1.468E+00
   1   17   28     3     7    1.1761E+06 -3.6425E+04   1.2125E+06  0.000E+00  0.000E+00  0.000E+00  3.27538E+01  5.316E-01  2.000E+01  2.000E+04 -1.821E+00
   1   18   29     3     8    1.2125E+06 -4.7415E+04   1.2600E+06  0.000E+00  0.000E+00  0.000E+00  3.18760E+01  5.427E-01  2.000E+01  2.000E+04 -2.371E+00
   1   18   30     3     9    1.2600E+06 -4.3820E+04   1.3038E+06  0.000E+00  0.000E+00  0.000E+00  3.09991E+01  5.546E-01  2.000E+01  2.000E+04 -2.191E+00



1
              HEAD IN LAYER   1 AT END OF TIME STEP   1 IN STRESS PERIOD    4
  ---------------------------------------------------------------------------

          1      2      3      4      5      6      7      8      9     10
         11     12     13     14     15     16     17     18     19     20
         21     22     23     24     25     26     27     28     29     30
 .........................................................................
   1  ****** ****** ****** ****** ****** ****** ****** ****** ****** ******
      ****** ****** ****** ****** ****** ****** ****** ****** ****** ******
      ****** ****** ****** ****** ****** ****** ****** ****** ****** ******
   2  ****** ****** ****** ****** ****** ****** ****** ****** ****** ******
      ****** ****** ****** ****** ****** ****** ****** ****** ****** ******
      ****** ****** ****** ****** ****** ****** ****** ****** ****** ******
   3  ****** ****** ****** ****** ****** ****** ****** ****** ****** ******
      ****** ****** ****** ****** ****** ****** ****** ****** ****** ******
      ****** ****** ****** ****** ****** ****** ****** ****** ****** ******
   4  ****** ****** ****** ****** ****** ****** ****** ****** ****** ******
      ****** ****** ****** ****** ****** ****** ****** ****** ****** ******
      ****** ****** ****** ****** ****** ****** ****** ****** ****** ******
   5  ****** ****** ****** ****** ****** ****** ****** ****** ****** ******
      ****** ****** ****** ****** ****** ****** ****** ****** ****** ******
      ****** ****** ****** ****** ****** ****** ****** ****** ****** ******
   6  ****** ****** ****** ****** ****** ****** ****** ****** ****** ******
      ****** ****** ****** ****** ****** ****** ****** ****** ****** ******
      ****** ****** ****** ****** ****** ****** ****** ****** ****** ******
   7  ****** ****** ****** ****** ****** ****** ****** ****** ****** ******
      ****** ****** ****** ****** ****** ****** ****** ****** ****** ******
      ****** ****** ****** ****** ****** ****** ****** ****** ****** ******
   8  ****** ****** ****** ****** ****** ****** ****** ****** ****** ******
      ****** ****** ****** ****** ****** ****** ****** ****** ****** ******
      ****** ****** ****** ****** ****** ****** ****** ****** ****** ******
   9  ****** ****** ****** ****** ****** ****** ****** ****** ****** ******
      ****** ****** ****** ****** ****** ****** ****** ****** ****** ******
      ****** ****** ****** ****** ****** ****** ****** ****** ****** ******
  10  ****** ****** ****** ****** ****** ****** ****** ****** ****** ******
      ****** ****** ****** ****** ****** ****** ****** ****** ****** ******
      ****** ****** ****** ****** ****** ****** ****** ****** ****** ******
  11  ****** ****** ****** ****** ****** ****** ****** ****** ****** ******
      ****** ****** ****** ****** ****** ****** ****** ****** ****** ******
      ****** ****** ****** ****** ****** ****** ****** ****** ****** ******
  12  ****** ****** ****** ****** ****** ****** ****** ****** ****** ******
      ****** ****** ****** ****** ****** ****** ****** ****** ****** ******
      ****** ****** ****** ****** ****** ****** ****** ****** ****** ******
  13  ****** ****** ****** ****** ****** ****** ****** ****** ****** ******
      ****** ****** ****** ****** ****** ****** ****** ****** ****** ******
      ****** ****** ****** ****** ****** ****** ****** ****** ****** ******
  14  ****** ****** ****** ****** ****** ****** ****** ****** ****** ******
      ****** ****** ****** ****** ****** ****** ****** ****** ****** ******
      ****** ****** ****** ****** ****** ****** ****** ****** ****** ******
  15  ****** ****** ****** ****** ****** ****** ****** ****** ****** ******
      ****** ****** ****** ****** ****** ****** ****** ****** ****** ******
      ****** ****** ****** ****** ****** ****** ****** ****** ****** ******
  16  ****** ****** ****** ****** ****** ****** ****** ****** ****** ******
      ****** ****** ****** ****** ****** ****** ****** ****** ****** ******
      ****** ****** ****** ****** ****** ****** ****** ****** ****** ******
  17  ****** ****** ****** ****** ****** ****** ****** ****** ****** ******
      ****** ****** ****** ****** ****** ****** ****** ****** ****** ******
      ****** ****** ****** ****** ****** ****** ****** ****** ****** ******
  18  ****** ****** ****** ****** ****** ****** ****** ****** ****** ******
      ****** ****** ****** ****** ****** ****** ****** ****** ****** ******
      ****** ****** ****** ****** ****** ****** ****** ****** ****** ******
  19  ****** ****** ****** ****** ****** ****** ****** ****** ****** ******
      ****** ****** ****** ****** ****** ****** ****** ****** ****** ******
      ****** ****** ****** ****** ****** ****** ****** ****** ****** ******
  20  ****** ****** ****** ****** ****** ****** ****** ****** ****** ******
      ****** ****** ****** ****** ****** ****** ****** ****** ****** ******
      ****** ****** ****** ****** ****** ****** ****** ****** ****** ******
  21  ****** ****** ****** ****** ****** ****** ****** ****** ****** ******
      ****** ****** ****** ****** ****** ****** ****** ****** ****** ******
      ****** ****** ****** ****** ****** ****** ****** ****** ****** ******
  22  ****** ****** ****** ****** ****** ****** ****** ****** ****** ******
      ****** ****** ****** ****** ****** ****** ****** ****** ****** ******
      ****** ****** ****** ****** ****** ****** ****** ****** ****** ******
  23  ****** ****** ****** ****** ****** ****** ****** ****** ****** ******
      ****** ****** ****** ****** ****** ****** ****** ****** ****** ******
      ****** ****** ****** ****** ****** ****** ****** ****** ****** ******
  24  ****** ****** ****** ****** ****** ****** ****** ****** ****** ******
      ****** ****** ****** ****** ****** ****** ****** ****** ****** ******
      ****** ****** ****** ****** ****** ****** ****** ****** ****** ******
  25  ****** ****** ****** ****** ****** ****** ****** ****** ****** ******
      ****** ****** ****** ****** ****** ****** ****** ****** ****** ******
      ****** ****** ****** ****** ****** ****** ****** ****** ****** ******

 HEAD WILL BE SAVED ON UNIT   51 AT END OF TIME STEP    1, STRESS PERIOD    4
1
  VOLUMETRIC BUDGET FOR ENTIRE MODEL AT END OF TIME STEP    1, STRESS PERIOD   4
  ------------------------------------------------------------------------------

     CUMULATIVE VOLUMES      L**3       RATES FOR THIS TIME STEP      L**3/T
     ------------------                 ------------------------

           IN:                                      IN:
           ---                                      ---
             STORAGE =    20159624.4974               STORAGE =         494.7797
       CONSTANT HEAD =   427358620.1904         CONSTANT HEAD =     1204947.6960
               WELLS =           0.0000                 WELLS =           0.0000
            RECHARGE =     8804400.0000              RECHARGE =       27600.0000
      STREAM LEAKAGE =           0.0000        STREAM LEAKAGE =           0.0000

            TOTAL IN =   456322644.6878              TOTAL IN =     1233042.4757

          OUT:                                     OUT:
          ----                                     ----
             STORAGE =      124639.5188               STORAGE =         868.3428
       CONSTANT HEAD =           0.0000         CONSTANT HEAD =           0.0000
               WELLS =    22967501.1037                 WELLS =       78403.3208
            RECHARGE =           0.0000              RECHARGE =           0.0000
      STREAM LEAKAGE =   433230507.6884        STREAM LEAKAGE =     1153770.7853

           TOTAL OUT =   456322648.3110             TOTAL OUT =     1233042.4488

            IN - OUT =          -3.6231              IN - OUT =       2.6867E-02

 PERCENT DISCREPANCY =          -0.00     PERCENT DISCREPANCY =           0.00






         TIME SUMMARY AT END OF TIME STEP    1 IN STRESS PERIOD    4
                    SECONDS     MINUTES      HOURS       DAYS        YEARS
                    -----------------------------------------------------------
   TIME STEP LENGTH 7.86240E+06 1.31040E+05  2184.0      91.000     0.24914    
 STRESS PERIOD TIME 7.86240E+06 1.31040E+05  2184.0      91.000     0.24914    
         TOTAL TIME 3.15360E+07 5.25600E+05  8760.0      365.00     0.99932    
1
1
                            STRESS PERIOD NO.    5, LENGTH =   92.00000    
                            -----------------------------------------------

                              NUMBER OF TIME STEPS =     1

                               MULTIPLIER FOR DELT =     1.500

                            INITIAL TIME STEP SIZE =   92.00000    

 WELL NO.  LAYER   ROW   COL   STRESS RATE         
 --------------------------------------------------
      1      1     10     10      -7320.    
      2      1      9     14     -0.5000E+05

      2 WELLS

                 RECHARGE =  5.000000E-04

 REUSING STREAM SEGMENT DATA FROM LAST STRESS PERIOD
 
 SOLVING FOR HEAD 


     6 CALLS TO PCG ROUTINE FOR TIME STEP   1 IN STRESS PERIOD    5
    22 TOTAL ITERATIONS

 OUTPUT CONTROL FOR STRESS PERIOD    5   TIME STEP    1
    SAVE BUDGET
    SAVE HEAD FOR ALL LAYERS
    PRINT HEAD FOR ALL LAYERS
 UBDSV2 SAVING "STREAMFLOW OUT  " ON UNIT  50 AT TIME STEP  1, STRESS PERIOD   5



 STREAM LISTING     PERIOD      5   STEP        1

 LAYER ROW COL. STREAM  RCH.  FLOW INTO     FLOW TO   FLOW OUT OF   OVRLND.     DIRECT     STREAM       STREAM     STREAM     STREAM   STREAMBED  STREAMBED
                SEG.NO.  NO.  STRM. RCH.    AQUIFER    STRM. RCH.    RUNOFF     PRECIP       ET          HEAD       DEPTH      WIDTH   CONDCTNC.   GRADIENT

   1   13    1     1     1    1.0000E+05 -2.7056E+04   1.2706E+05  0.000E+00  0.000E+00  0.000E+00  4.84175E+01  1.561E-01  2.000E+01  2.000E+04 -1.353E+00
   1   13    2     1     2    1.2706E+05 -3.6490E+04   1.6355E+05  0.000E+00  0.000E+00  0.000E+00  4.79651E+01  1.810E-01  2.000E+01  2.000E+04 -1.824E+00
   1   14    3     1     3    1.6355E+05 -3.2081E+04   1.9563E+05  0.000E+00  0.000E+00  0.000E+00  4.75124E+01  2.055E-01  2.000E+01  2.000E+04 -1.604E+00
   1   15    4     1     4    1.9563E+05 -3.1435E+04   2.2706E+05  0.000E+00  0.000E+00  0.000E+00  4.70562E+01  2.266E-01  2.000E+01  2.000E+04 -1.572E+00
   1   16    5     1     5    2.2706E+05 -3.3231E+04   2.6029E+05  0.000E+00  0.000E+00  0.000E+00  4.65991E+01  2.468E-01  2.000E+01  2.000E+04 -1.662E+00
   1   16    6     1     6    2.6029E+05 -2.8864E+04   2.8916E+05  0.000E+00  0.000E+00  0.000E+00  4.61403E+01  2.653E-01  2.000E+01  2.000E+04 -1.443E+00
   1   16    7     1     7    2.8916E+05 -2.8558E+04   3.1771E+05  0.000E+00  0.000E+00  0.000E+00  4.56793E+01  2.816E-01  2.000E+01  2.000E+04 -1.428E+00
   1   16    8     1     8    3.1771E+05 -2.8621E+04   3.4633E+05  0.000E+00  0.000E+00  0.000E+00  4.52176E+01  2.972E-01  2.000E+01  2.000E+04 -1.431E+00
   1   16    9     1     9    3.4633E+05 -2.8604E+04   3.7494E+05  0.000E+00  0.000E+00  0.000E+00  4.47555E+01  3.123E-01  2.000E+01  2.000E+04 -1.430E+00
   1   16   10     1    10    3.7494E+05 -2.8579E+04   4.0352E+05  0.000E+00  0.000E+00  0.000E+00  4.42928E+01  3.269E-01  2.000E+01  2.000E+04 -1.429E+00
   1   16   11     1    11    4.0352E+05 -2.9203E+04   4.3272E+05  0.000E+00  0.000E+00  0.000E+00  4.38299E+01  3.413E-01  2.000E+01  2.000E+04 -1.460E+00
   1   16   12     1    12    4.3272E+05 -3.4790E+04   4.6751E+05  0.000E+00  0.000E+00  0.000E+00  4.33681E+01  3.567E-01  2.000E+01  2.000E+04 -1.739E+00
   1   15   13     1    13    4.6751E+05 -3.2552E+04   5.0006E+05  0.000E+00  0.000E+00  0.000E+00  4.29066E+01  3.725E-01  2.000E+01  2.000E+04 -1.628E+00
   1   14   14     1    14    5.0006E+05 -3.2071E+04   5.3213E+05  0.000E+00  0.000E+00  0.000E+00  4.24440E+01  3.872E-01  2.000E+01  2.000E+04 -1.604E+00
   1   13   15     1    15    5.3213E+05 -3.3035E+04   5.6517E+05  0.000E+00  0.000E+00  0.000E+00  4.19812E+01  4.017E-01  2.000E+01  2.000E+04 -1.652E+00
   1   12   16     1    16    5.6517E+05 -3.7880E+04   6.0305E+05  0.000E+00  0.000E+00  0.000E+00  4.15194E+01  4.171E-01  2.000E+01  2.000E+04 -1.894E+00
   1   12   17     1    17    6.0305E+05 -3.0882E+04   6.3393E+05  0.000E+00  0.000E+00  0.000E+00  4.10566E+01  4.316E-01  2.000E+01  2.000E+04 -1.544E+00
   1   12   18     1    18    6.3393E+05 -3.0275E+04   6.6421E+05  0.000E+00  0.000E+00  0.000E+00  4.05920E+01  4.443E-01  2.000E+01  2.000E+04 -1.514E+00
   1   12   19     1    19    6.6421E+05 -3.4767E+04   6.9897E+05  0.000E+00  0.000E+00  0.000E+00  4.01280E+01  4.575E-01  2.000E+01  2.000E+04 -1.738E+00
   1   13   20     1    20    6.9897E+05 -2.6017E+04   7.2499E+05  0.000E+00  0.000E+00  0.000E+00  3.96629E+01  4.697E-01  2.000E+01  2.000E+04 -1.301E+00
   1   14   21     1    21    7.2499E+05 -1.9410E+04   7.4440E+05  0.000E+00  0.000E+00  0.000E+00  3.91945E+01  4.786E-01  2.000E+01  2.000E+04 -9.705E-01
   1   14   22     1    22    7.4440E+05 -1.7187E+03   7.4612E+05  0.000E+00  0.000E+00  0.000E+00  3.87214E+01  4.827E-01  2.000E+01  2.000E+04 -8.593E-02
   1    9   30     2     1    5.0000E+04 -2.6410E+04   7.6410E+04  0.000E+00  0.000E+00  0.000E+00  4.02584E+01  1.334E-01  2.000E+01  2.000E+04 -1.320E+00
   1    9   29     2     2    7.6410E+04 -2.8862E+04   1.0527E+05  0.000E+00  0.000E+00  0.000E+00  4.00408E+01  1.658E-01  2.000E+01  2.000E+04 -1.443E+00
   1    9   28     2     3    1.0527E+05 -3.3106E+04   1.3838E+05  0.000E+00  0.000E+00  0.000E+00  3.98227E+01  1.977E-01  2.000E+01  2.000E+04 -1.655E+00
[...]
  19  ****** ****** ****** ****** ****** ****** ****** ****** ****** ******
      ****** ****** ****** ****** ****** ****** ****** ****** ****** ******
      ****** ****** ****** ****** ****** ****** ****** ****** ****** ******
  20  ****** ****** ****** ****** ****** ****** ****** ****** ****** ******
      ****** ****** ****** ****** ****** ****** ****** ****** ****** ******
      ****** ****** ****** ****** ****** ****** ****** ****** ****** ******
  21  ****** ****** ****** ****** ****** ****** ****** ****** ****** ******
      ****** ****** ****** ****** ****** ****** ****** ****** ****** ******
      ****** ****** ****** ****** ****** ****** ****** ****** ****** ******
  22  ****** ****** ****** ****** ****** ****** ****** ****** ****** ******
      ****** ****** ****** ****** ****** ****** ****** ****** ****** ******
      ****** ****** ****** ****** ****** ****** ****** ****** ****** ******
  23  ****** ****** ****** ****** ****** ****** ****** ****** ****** ******
      ****** ****** ****** ****** ****** ****** ****** ****** ****** ******
      ****** ****** ****** ****** ****** ****** ****** ****** ****** ******
  24  ****** ****** ****** ****** ****** ****** ****** ****** ****** ******
      ****** ****** ****** ****** ****** ****** ****** ****** ****** ******
      ****** ****** ****** ****** ****** ****** ****** ****** ****** ******
  25  ****** ****** ****** ****** ****** ****** ****** ****** ****** ******
      ****** ****** ****** ****** ****** ****** ****** ****** ****** ******
      ****** ****** ****** ****** ****** ****** ****** ****** ****** ******

 HEAD WILL BE SAVED ON UNIT   51 AT END OF TIME STEP    1, STRESS PERIOD   11
1
  VOLUMETRIC BUDGET FOR ENTIRE MODEL AT END OF TIME STEP    1, STRESS PERIOD  11
  ------------------------------------------------------------------------------

     CUMULATIVE VOLUMES      L**3       RATES FOR THIS TIME STEP      L**3/T
     ------------------                 ------------------------

           IN:                                      IN:
           ---                                      ---
             STORAGE =    20961203.7293               STORAGE =        1876.4374
       CONSTANT HEAD =  1184453004.8621         CONSTANT HEAD =     1172561.6077
               WELLS =           0.0000                 WELLS =           0.0000
            RECHARGE =    23901600.0000              RECHARGE =           0.0000
      STREAM LEAKAGE =           0.0000        STREAM LEAKAGE =           0.0000

            TOTAL IN =  1229315808.5914              TOTAL IN =     1174438.0450

          OUT:                                     OUT:
          ----                                     ----
             STORAGE =      888947.3676               STORAGE =         443.0362
       CONSTANT HEAD =           0.0000         CONSTANT HEAD =           0.0000
               WELLS =    61767801.1209                 WELLS =       33535.8141
            RECHARGE =           0.0000              RECHARGE =           0.0000
      STREAM LEAKAGE =  1166659064.5702        STREAM LEAKAGE =     1140459.2235

           TOTAL OUT =  1229315813.0588             TOTAL OUT =     1174438.0738

            IN - OUT =          -4.4674              IN - OUT =      -2.8749E-02

 PERCENT DISCREPANCY =          -0.00     PERCENT DISCREPANCY =          -0.00






         TIME SUMMARY AT END OF TIME STEP    1 IN STRESS PERIOD   11
                    SECONDS     MINUTES      HOURS       DAYS        YEARS
                    -----------------------------------------------------------
   TIME STEP LENGTH 7.86240E+06 1.31040E+05  2184.0      91.000     0.24914    
 STRESS PERIOD TIME 7.86240E+06 1.31040E+05  2184.0      91.000     0.24914    
         TOTAL TIME 8.67456E+07 1.44576E+06  24096.      1004.0      2.7488    
1
1
                            STRESS PERIOD NO.   12, LENGTH =   91.00000    
                            -----------------------------------------------

                              NUMBER OF TIME STEPS =     1

                               MULTIPLIER FOR DELT =     1.500

                            INITIAL TIME STEP SIZE =   91.00000    

 WELL NO.  LAYER   ROW   COL   STRESS RATE         
 --------------------------------------------------
      1      1     10     10      -7320.    
      2      1      9     14     -0.2108E+05
      3      1      2     13     -0.5000E+05

      3 WELLS

                 RECHARGE =  1.000000E-03

 REUSING STREAM SEGMENT DATA FROM LAST STRESS PERIOD
 
 SOLVING FOR HEAD 


     5 CALLS TO PCG ROUTINE FOR TIME STEP   1 IN STRESS PERIOD   12
    20 TOTAL ITERATIONS

 OUTPUT CONTROL FOR STRESS PERIOD   12   TIME STEP    1
    SAVE BUDGET
    SAVE HEAD FOR ALL LAYERS
    PRINT HEAD FOR ALL LAYERS
 UBDSV2 SAVING "STREAMFLOW OUT  " ON UNIT  50 AT TIME STEP  1, STRESS PERIOD  12



 STREAM LISTING     PERIOD     12   STEP        1

 LAYER ROW COL. STREAM  RCH.  FLOW INTO     FLOW TO   FLOW OUT OF   OVRLND.     DIRECT     STREAM       STREAM     STREAM     STREAM   STREAMBED  STREAMBED
                SEG.NO.  NO.  STRM. RCH.    AQUIFER    STRM. RCH.    RUNOFF     PRECIP       ET          HEAD       DEPTH      WIDTH   CONDCTNC.   GRADIENT

   1   13    1     1     1    1.0000E+05 -2.7398E+04   1.2740E+05  0.000E+00  0.000E+00  0.000E+00  4.84176E+01  1.562E-01  2.000E+01  2.000E+04 -1.370E+00
   1   13    2     1     2    1.2740E+05 -3.6939E+04   1.6434E+05  0.000E+00  0.000E+00  0.000E+00  4.79655E+01  1.814E-01  2.000E+01  2.000E+04 -1.847E+00
   1   14    3     1     3    1.6434E+05 -3.2513E+04   1.9685E+05  0.000E+00  0.000E+00  0.000E+00  4.75130E+01  2.062E-01  2.000E+01  2.000E+04 -1.626E+00
   1   15    4     1     4    1.9685E+05 -3.1841E+04   2.2869E+05  0.000E+00  0.000E+00  0.000E+00  4.70571E+01  2.275E-01  2.000E+01  2.000E+04 -1.592E+00
   1   16    5     1     5    2.2869E+05 -3.3555E+04   2.6225E+05  0.000E+00  0.000E+00  0.000E+00  4.66002E+01  2.479E-01  2.000E+01  2.000E+04 -1.678E+00
   1   16    6     1     6    2.6225E+05 -2.9199E+04   2.9145E+05  0.000E+00  0.000E+00  0.000E+00  4.61415E+01  2.665E-01  2.000E+01  2.000E+04 -1.460E+00
   1   16    7     1     7    2.9145E+05 -2.8936E+04   3.2038E+05  0.000E+00  0.000E+00  0.000E+00  4.56807E+01  2.829E-01  2.000E+01  2.000E+04 -1.447E+00
   1   16    8     1     8    3.2038E+05 -2.9047E+04   3.4943E+05  0.000E+00  0.000E+00  0.000E+00  4.52192E+01  2.987E-01  2.000E+01  2.000E+04 -1.452E+00
   1   16    9     1     9    3.4943E+05 -2.9078E+04   3.7851E+05  0.000E+00  0.000E+00  0.000E+00  4.47572E+01  3.140E-01  2.000E+01  2.000E+04 -1.454E+00
   1   16   10     1    10    3.7851E+05 -2.9094E+04   4.0760E+05  0.000E+00  0.000E+00  0.000E+00  4.42948E+01  3.288E-01  2.000E+01  2.000E+04 -1.455E+00
   1   16   11     1    11    4.0760E+05 -2.9744E+04   4.3735E+05  0.000E+00  0.000E+00  0.000E+00  4.38320E+01  3.434E-01  2.000E+01  2.000E+04 -1.487E+00
   1   16   12     1    12    4.3735E+05 -3.5371E+04   4.7272E+05  0.000E+00  0.000E+00  0.000E+00  4.33704E+01  3.590E-01  2.000E+01  2.000E+04 -1.769E+00
   1   15   13     1    13    4.7272E+05 -3.3555E+04   5.0627E+05  0.000E+00  0.000E+00  0.000E+00  4.29092E+01  3.751E-01  2.000E+01  2.000E+04 -1.678E+00
   1   14   14     1    14    5.0627E+05 -3.3589E+04   5.3986E+05  0.000E+00  0.000E+00  0.000E+00  4.24472E+01  3.904E-01  2.000E+01  2.000E+04 -1.679E+00
   1   13   15     1    15    5.3986E+05 -3.5194E+04   5.7505E+05  0.000E+00  0.000E+00  0.000E+00  4.19851E+01  4.056E-01  2.000E+01  2.000E+04 -1.760E+00
   1   12   16     1    16    5.7505E+05 -4.0628E+04   6.1568E+05  0.000E+00  0.000E+00  0.000E+00  4.15242E+01  4.219E-01  2.000E+01  2.000E+04 -2.031E+00
   1   12   17     1    17    6.1568E+05 -3.2439E+04   6.4812E+05  0.000E+00  0.000E+00  0.000E+00  4.10622E+01  4.372E-01  2.000E+01  2.000E+04 -1.622E+00
   1   12   18     1    18    6.4812E+05 -3.1342E+04   6.7946E+05  0.000E+00  0.000E+00  0.000E+00  4.05981E+01  4.503E-01  2.000E+01  2.000E+04 -1.567E+00
   1   12   19     1    19    6.7946E+05 -3.5638E+04   7.1510E+05  0.000E+00  0.000E+00  0.000E+00  4.01343E+01  4.638E-01  2.000E+01  2.000E+04 -1.782E+00
   1   13   20     1    20    7.1510E+05 -2.6490E+04   7.4159E+05  0.000E+00  0.000E+00  0.000E+00  3.96693E+01  4.761E-01  2.000E+01  2.000E+04 -1.324E+00
   1   14   21     1    21    7.4159E+05 -1.9676E+04   7.6127E+05  0.000E+00  0.000E+00  0.000E+00  3.92010E+01  4.851E-01  2.000E+01  2.000E+04 -9.838E-01
   1   14   22     1    22    7.6127E+05 -1.7769E+03   7.6304E+05  0.000E+00  0.000E+00  0.000E+00  3.87279E+01  4.893E-01  2.000E+01  2.000E+04 -8.884E-02
   1    9   30     2     1    5.0000E+04 -2.6578E+04   7.6578E+04  0.000E+00  0.000E+00  0.000E+00  4.02585E+01  1.335E-01  2.000E+01  2.000E+04 -1.329E+00
   1    9   29     2     2    7.6578E+04 -2.9035E+04   1.0561E+05  0.000E+00  0.000E+00  0.000E+00  4.00411E+01  1.661E-01  2.000E+01  2.000E+04 -1.452E+00
   1    9   28     2     3    1.0561E+05 -3.3298E+04   1.3891E+05  0.000E+00  0.000E+00  0.000E+00  3.98231E+01  1.981E-01  2.000E+01  2.000E+04 -1.665E+00
   1    9   27     2     4    1.3891E+05 -4.7351E+04   1.8626E+05  0.000E+00  0.000E+00  0.000E+00  3.96101E+01  2.351E-01  2.000E+01  2.000E+04 -2.368E+00
   1   10   26     2     5    1.8626E+05 -3.3299E+04   2.1956E+05  0.000E+00  0.000E+00  0.000E+00  3.93935E+01  2.685E-01  2.000E+01  2.000E+04 -1.665E+00
   1   11   25     2     6    2.1956E+05 -2.4927E+04   2.4449E+05  0.000E+00  0.000E+00  0.000E+00  3.91660E+01  2.910E-01  2.000E+01  2.000E+04 -1.246E+00
   1   12   24     2     7    2.4449E+05 -1.8354E+04   2.6284E+05  0.000E+00  0.000E+00  0.000E+00  3.89320E+01  3.070E-01  2.000E+01  2.000E+04 -9.177E-01
   1   13   23     2     8    2.6284E+05 -1.3040E+04   2.7588E+05  0.000E+00  0.000E+00  0.000E+00  3.86933E+01  3.183E-01  2.000E+01  2.000E+04 -6.520E-01
   1   14   22     2     9    2.7588E+05 -7.3267E+03   2.8321E+05  0.000E+00  0.000E+00  0.000E+00  3.84504E+01  3.254E-01  2.000E+01  2.000E+04 -3.663E-01
   1   14   22     3     1    1.0463E+06 -1.5361E+04   1.0616E+06  0.000E+00  0.000E+00  0.000E+00  3.80487E+01  4.932E-01  2.000E+01  2.000E+04 -7.680E-01
   1   15   23     3     2    1.0616E+06 -2.3774E+04   1.0854E+06  0.000E+00  0.000E+00  0.000E+00  3.71653E+01  4.986E-01  2.000E+01  2.000E+04 -1.189E+00
   1   15   24     3     3    1.0854E+06 -1.9797E+04   1.1052E+06  0.000E+00  0.000E+00  0.000E+00  3.62825E+01  5.047E-01  2.000E+01  2.000E+04 -9.898E-01
   1   15   25     3     4    1.1052E+06 -1.9394E+04   1.1246E+06  0.000E+00  0.000E+00  0.000E+00  3.53990E+01  5.101E-01  2.000E+01  2.000E+04 -9.697E-01
   1   15   26     3     5    1.1246E+06 -2.2159E+04   1.1467E+06  0.000E+00  0.000E+00  0.000E+00  3.45158E+01  5.158E-01  2.000E+01  2.000E+04 -1.108E+00
   1   16   27     3     6    1.1467E+06 -2.9358E+04   1.1761E+06  0.000E+00  0.000E+00  0.000E+00  3.36339E+01  5.227E-01  2.000E+01  2.000E+04 -1.468E+00
   1   17   28     3     7    1.1761E+06 -3.6425E+04   1.2125E+06  0.000E+00  0.000E+00  0.000E+00  3.27538E+01  5.316E-01  2.000E+01  2.000E+04 -1.821E+00
   1   18   29     3     8    1.2125E+06 -4.7415E+04   1.2599E+06  0.000E+00  0.000E+00  0.000E+00  3.18760E+01  5.427E-01  2.000E+01  2.000E+04 -2.371E+00
   1   18   30     3     9    1.2599E+06 -4.3820E+04   1.3038E+06  0.000E+00  0.000E+00  0.000E+00  3.09991E+01  5.546E-01  2.000E+01  2.000E+04 -2.191E+00



1
              HEAD IN LAYER   1 AT END OF TIME STEP   1 IN STRESS PERIOD   12
  ---------------------------------------------------------------------------

          1      2      3      4      5      6      7      8      9     10
         11     12     13     14     15     16     17     18     19     20
         21     22     23     24     25     26     27     28     29     30
 .........................................................................
   1  ****** ****** ****** ****** ****** ****** ****** ****** ****** ******
      ****** ****** ****** ****** ****** ****** ****** ****** ****** ******
      ****** ****** ****** ****** ****** ****** ****** ****** ****** ******
   2  ****** ****** ****** ****** ****** ****** ****** ****** ****** ******
      ****** ****** ****** ****** ****** ****** ****** ****** ****** ******
      ****** ****** ****** ****** ****** ****** ****** ****** ****** ******
   3  ****** ****** ****** ****** ****** ****** ****** ****** ****** ******
      ****** ****** ****** ****** ****** ****** ****** ****** ****** ******
      ****** ****** ****** ****** ****** ****** ****** ****** ****** ******
   4  ****** ****** ****** ****** ****** ****** ****** ****** ****** ******
      ****** ****** ****** ****** ****** ****** ****** ****** ****** ******
      ****** ****** ****** ****** ****** ****** ****** ****** ****** ******
   5  ****** ****** ****** ****** ****** ****** ****** ****** ****** ******
      ****** ****** ****** ****** ****** ****** ****** ****** ****** ******
      ****** ****** ****** ****** ****** ****** ****** ****** ****** ******
   6  ****** ****** ****** ****** ****** ****** ****** ****** ****** ******
      ****** ****** ****** ****** ****** ****** ****** ****** ****** ******
      ****** ****** ****** ****** ****** ****** ****** ****** ****** ******
   7  ****** ****** ****** ****** ****** ****** ****** ****** ****** ******
      ****** ****** ****** ****** ****** ****** ****** ****** ****** ******
      ****** ****** ****** ****** ****** ****** ****** ****** ****** ******
   8  ****** ****** ****** ****** ****** ****** ****** ****** ****** ******
      ****** ****** ****** ****** ****** ****** ****** ****** ****** ******
      ****** ****** ****** ****** ****** ****** ****** ****** ****** ******
   9  ****** ****** ****** ****** ****** ****** ****** ****** ****** ******
      ****** ****** ****** ****** ****** ****** ****** ****** ****** ******
      ****** ****** ****** ****** ****** ****** ****** ****** ****** ******
  10  ****** ****** ****** ****** ****** ****** ****** ****** ****** ******
      ****** ****** ****** ****** ****** ****** ****** ****** ****** ******
      ****** ****** ****** ****** ****** ****** ****** ****** ****** ******
  11  ****** ****** ****** ****** ****** ****** ****** ****** ****** ******
      ****** ****** ****** ****** ****** ****** ****** ****** ****** ******
      ****** ****** ****** ****** ****** ****** ****** ****** ****** ******
  12  ****** ****** ****** ****** ****** ****** ****** ****** ****** ******
      ****** ****** ****** ****** ****** ****** ****** ****** ****** ******
      ****** ****** ****** ****** ****** ****** ****** ****** ****** ******
  13  ****** ****** ****** ****** ****** ****** ****** ****** ****** ******
      ****** ****** ****** ****** ****** ****** ****** ****** ****** ******
      ****** ****** ****** ****** ****** ****** ****** ****** ****** ******
  14  ****** ****** ****** ****** ****** ****** ****** ****** ****** ******
      ****** ****** ****** ****** ****** ****** ****** ****** ****** ******
      ****** ****** ****** ****** ****** ****** ****** ****** ****** ******
  15  ****** ****** ****** ****** ****** ****** ****** ****** ****** ******
      ****** ****** ****** ****** ****** ****** ****** ****** ****** ******
      ****** ****** ****** ****** ****** ****** ****** ****** ****** ******
  16  ****** ****** ****** ****** ****** ****** ****** ****** ****** ******
      ****** ****** ****** ****** ****** ****** ****** ****** ****** ******
      ****** ****** ****** ****** ****** ****** ****** ****** ****** ******
  17  ****** ****** ****** ****** ****** ****** ****** ****** ****** ******
      ****** ****** ****** ****** ****** ****** ****** ****** ****** ******
      ****** ****** ****** ****** ****** ****** ****** ****** ****** ******
  18  ****** ****** ****** ****** ****** ****** ****** ****** ****** ******
      ****** ****** ****** ****** ****** ****** ****** ****** ****** ******
      ****** ****** ****** ****** ****** ****** ****** ****** ****** ******
  19  ****** ****** ****** ****** ****** ****** ****** ****** ****** ******
      ****** ****** ****** ****** ****** ****** ****** ****** ****** ******
      ****** ****** ****** ****** ****** ****** ****** ****** ****** ******
  20  ****** ****** ****** ****** ****** ****** ****** ****** ****** ******
      ****** ****** ****** ****** ****** ****** ****** ****** ****** ******
      ****** ****** ****** ****** ****** ****** ****** ****** ****** ******
  21  ****** ****** ****** ****** ****** ****** ****** ****** ****** ******
      ****** ****** ****** ****** ****** ****** ****** ****** ****** ******
      ****** ****** ****** ****** ****** ****** ****** ****** ****** ******
  22  ****** ****** ****** ****** ****** ****** ****** ****** ****** ******
      ****** ****** ****** ****** ****** ****** ****** ****** ****** ******
      ****** ****** ****** ****** ****** ****** ****** ****** ****** ******
  23  ****** ****** ****** ****** ****** ****** ****** ****** ****** ******
      ****** ****** ****** ****** ****** ****** ****** ****** ****** ******
      ****** ****** ****** ****** ****** ****** ****** ****** ****** ******
  24  ****** ****** ****** ****** ****** ****** ****** ****** ****** ******
      ****** ****** ****** ****** ****** ****** ****** ****** ****** ******
      ****** ****** ****** ****** ****** ****** ****** ****** ****** ******
  25  ****** ****** ****** ****** ****** ****** ****** ****** ****** ******
      ****** ****** ****** ****** ****** ****** ****** ****** ****** ******
      ****** ****** ****** ****** ****** ****** ****** ****** ****** ******

 HEAD WILL BE SAVED ON UNIT   51 AT END OF TIME STEP    1, STRESS PERIOD   12
1
  VOLUMETRIC BUDGET FOR ENTIRE MODEL AT END OF TIME STEP    1, STRESS PERIOD  12
  ------------------------------------------------------------------------------

     CUMULATIVE VOLUMES      L**3       RATES FOR THIS TIME STEP      L**3/T
     ------------------                 ------------------------

           IN:                                      IN:
           ---                                      ---
             STORAGE =    21005718.9585               STORAGE =         489.1783
       CONSTANT HEAD =  1294104683.4999         CONSTANT HEAD =     1204963.5015
               WELLS =           0.0000                 WELLS =           0.0000
            RECHARGE =    26413200.0000              RECHARGE =       27600.0000
      STREAM LEAKAGE =           0.0000        STREAM LEAKAGE =           0.0000

            TOTAL IN =  1341523602.4584              TOTAL IN =     1233052.6799

          OUT:                                     OUT:
          ----                                     ----
             STORAGE =      970520.5987               STORAGE =         896.4091
       CONSTANT HEAD =           0.0000         CONSTANT HEAD =           0.0000
               WELLS =    68902503.3111                 WELLS =       78403.3208
            RECHARGE =           0.0000              RECHARGE =           0.0000
      STREAM LEAKAGE =  1271650580.4744        STREAM LEAKAGE =     1153752.9220

           TOTAL OUT =  1341523604.3842             TOTAL OUT =     1233052.6519

            IN - OUT =          -1.9258              IN - OUT =       2.7930E-02

 PERCENT DISCREPANCY =          -0.00     PERCENT DISCREPANCY =           0.00






         TIME SUMMARY AT END OF TIME STEP    1 IN STRESS PERIOD   12
                    SECONDS     MINUTES      HOURS       DAYS        YEARS
                    -----------------------------------------------------------
   TIME STEP LENGTH 7.86240E+06 1.31040E+05  2184.0      91.000     0.24914    
 STRESS PERIOD TIME 7.86240E+06 1.31040E+05  2184.0      91.000     0.24914    
         TOTAL TIME 9.46080E+07 1.57680E+06  26280.      1095.0      2.9979    
1

 Run end date and time (yyyy/mm/dd hh:mm:ss): 2018/09/26 17:02:48
 Elapsed run time:  0.054 Seconds

